                                   MODFLOW 6
                U.S. GEOLOGICAL SURVEY MODULAR HYDROLOGIC MODEL
                          GROUNDWATER FLOW MODEL (GWF)
                            VERSION 6.1.0 12/12/2019

   MODFLOW 6 compiled Dec 13 2019 12:29:49 with IFORT compiler (ver. 19.0.5)

This software has been approved for release by the U.S. Geological 
Survey (USGS). Although the software has been subjected to rigorous 
review, the USGS reserves the right to update the software as needed 
pursuant to further analysis and review. No warranty, expressed or 
implied, is made by the USGS or the U.S. Government as to the 
functionality of the software and related material nor shall the 
fact of release constitute any such warranty. Furthermore, the 
software is released on condition that neither the USGS nor the U.S. 
Government shall be held liable for any damages resulting from its 
authorized or unauthorized use. Also refer to the USGS Water 
Resources Software User Rights Notice for complete use, copyright, 
and distribution information.


MODFLOW was compiled using uniform precision.
Precision of REAL variables: 15


 OPENED freyberg6.dis
 FILE TYPE:DIS6                   UNIT 1005   STATUS:OLD                 
 FORMAT:FORMATTED              ACCESS:SEQUENTIAL          
 ACTION:READ                


 OPENED freyberg6.ic
 FILE TYPE:IC6                    UNIT 1006   STATUS:OLD                 
 FORMAT:FORMATTED              ACCESS:SEQUENTIAL          
 ACTION:READ                


 OPENED freyberg6.npf
 FILE TYPE:NPF6                   UNIT 1007   STATUS:OLD                 
 FORMAT:FORMATTED              ACCESS:SEQUENTIAL          
 ACTION:READ                


 OPENED freyberg6.sto
 FILE TYPE:STO6                   UNIT 1008   STATUS:OLD                 
 FORMAT:FORMATTED              ACCESS:SEQUENTIAL          
 ACTION:READ                


 OPENED freyberg6.oc
 FILE TYPE:OC6                    UNIT 1009   STATUS:OLD                 
 FORMAT:FORMATTED              ACCESS:SEQUENTIAL          
 ACTION:READ                


 OPENED freyberg6.wel
 FILE TYPE:WEL6                   UNIT 1010   STATUS:OLD                 
 FORMAT:FORMATTED              ACCESS:SEQUENTIAL          
 ACTION:READ                


 OPENED freyberg6.rch
 FILE TYPE:RCH6                   UNIT 1011   STATUS:OLD                 
 FORMAT:FORMATTED              ACCESS:SEQUENTIAL          
 ACTION:READ                


 OPENED freyberg6.ghb
 FILE TYPE:GHB6                   UNIT 1012   STATUS:OLD                 
 FORMAT:FORMATTED              ACCESS:SEQUENTIAL          
 ACTION:READ                


 OPENED freyberg6.sfr
 FILE TYPE:SFR6                   UNIT 1013   STATUS:OLD                 
 FORMAT:FORMATTED              ACCESS:SEQUENTIAL          
 ACTION:READ                


 OPENED head.obs
 FILE TYPE:OBS6                   UNIT 1014   STATUS:OLD                 
 FORMAT:FORMATTED              ACCESS:SEQUENTIAL          
 ACTION:READ                

 NAMEFILE OPTIONS:
    NEWTON-RAPHSON method enabled for the model.

 DIS -- STRUCTURED GRID DISCRETIZATION PACKAGE, VERSION 2 : 3/27/2014 - INPUT READ FROM UNIT 1005


 PROCESSING DISCRETIZATION OPTIONS
    MODEL LENGTH UNIT IS METERS
 END OF DISCRETIZATION OPTIONS
 PROCESSING DISCRETIZATION DIMENSIONS
    NLAY =       3
    NROW =      40
    NCOL =      20
 END OF DISCRETIZATION DIMENSIONS
 PROCESSING GRIDDATA

 OPENED freyberg6.dis_delr.txt
 FILE TYPE:OPEN/CLOSE   UNIT 1016   STATUS:OLD                 
 FORMAT:FORMATTED              ACCESS:SEQUENTIAL          
 ACTION:READ                


 OPENED freyberg6.dis_delc.txt
 FILE TYPE:OPEN/CLOSE   UNIT 1017   STATUS:OLD                 
 FORMAT:FORMATTED              ACCESS:SEQUENTIAL          
 ACTION:READ                


 OPENED freyberg6.dis_top.txt
 FILE TYPE:OPEN/CLOSE   UNIT 1018   STATUS:OLD                 
 FORMAT:FORMATTED              ACCESS:SEQUENTIAL          
 ACTION:READ                


 OPENED freyberg6.dis_botm_layer1.txt
 FILE TYPE:OPEN/CLOSE   UNIT 1019   STATUS:OLD                 
 FORMAT:FORMATTED              ACCESS:SEQUENTIAL          
 ACTION:READ                


 OPENED freyberg6.dis_botm_layer2.txt
 FILE TYPE:OPEN/CLOSE   UNIT 1020   STATUS:OLD                 
 FORMAT:FORMATTED              ACCESS:SEQUENTIAL          
 ACTION:READ                


 OPENED freyberg6.dis_botm_layer3.txt
 FILE TYPE:OPEN/CLOSE   UNIT 1021   STATUS:OLD                 
 FORMAT:FORMATTED              ACCESS:SEQUENTIAL          
 ACTION:READ                


 OPENED freyberg6.dis_idomain_layer1.txt
 FILE TYPE:OPEN/CLOSE   UNIT 1022   STATUS:OLD                 
 FORMAT:FORMATTED              ACCESS:SEQUENTIAL          
 ACTION:READ                


 OPENED freyberg6.dis_idomain_layer2.txt
 FILE TYPE:OPEN/CLOSE   UNIT 1023   STATUS:OLD                 
 FORMAT:FORMATTED              ACCESS:SEQUENTIAL          
 ACTION:READ                


 OPENED freyberg6.dis_idomain_layer3.txt
 FILE TYPE:OPEN/CLOSE   UNIT 1024   STATUS:OLD                 
 FORMAT:FORMATTED              ACCESS:SEQUENTIAL          
 ACTION:READ                

 END PROCESSING GRIDDATA

 THE SPECIFIED IDOMAIN RESULTS IN A REDUCED NUMBER OF CELLS.
 NUMBER OF USER NODES: 2400
 NUMBER OF NODES IN SOLUTION: 2118



 NPF -- NODE PROPERTY FLOW PACKAGE, VERSION 1, 3/30/2015 INPUT READ FROM UNIT 1007


 PROCESSING NPF OPTIONS
    CELL-BY-CELL FLOW INFORMATION WILL BE SAVED TO BINARY FILE WHENEVER ICBCFL IS NOT ZERO.
 END OF NPF OPTIONS

 WEL   -- WEL PACKAGE, VERSION 8, 2/22/2014 INPUT READ FROM UNIT 1010

 PROCESSING WEL OPTIONS
    LISTS OF WEL CELLS WILL BE PRINTED.
    WEL FLOWS WILL BE PRINTED TO LISTING FILE.
    FLOWS WILL BE SAVED TO BUDGET FILE SPECIFIED IN OUTPUT CONTROL
 END OF WEL OPTIONS

 PROCESSING WEL DIMENSIONS
    MAXBOUND =       6
 END OF WEL DIMENSIONS

 GHB   -- GHB PACKAGE, VERSION 8, 2/22/2014 INPUT READ FROM UNIT 1012

 PROCESSING GHB OPTIONS
    LISTS OF GHB CELLS WILL BE PRINTED.
    GHB FLOWS WILL BE PRINTED TO LISTING FILE.
    FLOWS WILL BE SAVED TO BUDGET FILE SPECIFIED IN OUTPUT CONTROL
 END OF GHB OPTIONS

 PROCESSING GHB DIMENSIONS
    MAXBOUND =      30
 END OF GHB DIMENSIONS

 RCH   -- RCH PACKAGE, VERSION 8, 2/22/2014 INPUT READ FROM UNIT 1011

 PROCESSING RCH OPTIONS
    RECHARGE INPUT WILL BE READ AS ARRAY(S).
    FLOWS WILL BE SAVED TO BUDGET FILE SPECIFIED IN OUTPUT CONTROL
 END OF RCH OPTIONS

 SFR   -- SFR PACKAGE, VERSION 8, 2/22/2014 INPUT READ FROM UNIT 1013

 PROCESSING SFR OPTIONS
    SFR BOUNDARIES HAVE NAMES IN LAST COLUMN.
    LISTS OF SFR CELLS WILL BE PRINTED.
    FLOWS WILL BE SAVED TO BUDGET FILE SPECIFIED IN OUTPUT CONTROL

 OPENED sfr.obs
 FILE TYPE:OBS   UNIT 1025   STATUS:OLD                 
 FORMAT:FORMATTED              ACCESS:SEQUENTIAL          
 ACTION:READ                

    MAXIMUM DEPTH CHANGE VALUE (  0.1000000E-03) SPECIFIED.
    UNIT CONVERSION VALUE (   86400.00    ) SPECIFIED.
 END OF SFR OPTIONS

 PROCESSING SFR DIMENSIONS
    NREACHES = 40
 END OF SFR DIMENSIONS

 IC -- INITIAL CONDITIONS PACKAGE, VERSION 8, 3/28/2015 INPUT READ FROM UNIT 1006
 PROCESSING GRIDDATA

 OPENED freyberg6.ic_strt_layer1.txt
 FILE TYPE:OPEN/CLOSE   UNIT 1026   STATUS:OLD                 
 FORMAT:FORMATTED              ACCESS:SEQUENTIAL          
 ACTION:READ                


 OPENED freyberg6.ic_strt_layer2.txt
 FILE TYPE:OPEN/CLOSE   UNIT 1027   STATUS:OLD                 
 FORMAT:FORMATTED              ACCESS:SEQUENTIAL          
 ACTION:READ                


 OPENED freyberg6.ic_strt_layer3.txt
 FILE TYPE:OPEN/CLOSE   UNIT 1028   STATUS:OLD                 
 FORMAT:FORMATTED              ACCESS:SEQUENTIAL          
 ACTION:READ                

 END PROCESSING GRIDDATA
 PROCESSING GRIDDATA

 OPENED freyberg6.npf_icelltype_layer1.txt
 FILE TYPE:OPEN/CLOSE   UNIT 1029   STATUS:OLD                 
 FORMAT:FORMATTED              ACCESS:SEQUENTIAL          
 ACTION:READ                


 OPENED freyberg6.npf_icelltype_layer2.txt
 FILE TYPE:OPEN/CLOSE   UNIT 1030   STATUS:OLD                 
 FORMAT:FORMATTED              ACCESS:SEQUENTIAL          
 ACTION:READ                


 OPENED freyberg6.npf_icelltype_layer3.txt
 FILE TYPE:OPEN/CLOSE   UNIT 1031   STATUS:OLD                 
 FORMAT:FORMATTED              ACCESS:SEQUENTIAL          
 ACTION:READ                


 OPENED freyberg6.npf_k_layer1.txt
 FILE TYPE:OPEN/CLOSE   UNIT 1032   STATUS:OLD                 
 FORMAT:FORMATTED              ACCESS:SEQUENTIAL          
 ACTION:READ                


 OPENED freyberg6.npf_k_layer2.txt
 FILE TYPE:OPEN/CLOSE   UNIT 1033   STATUS:OLD                 
 FORMAT:FORMATTED              ACCESS:SEQUENTIAL          
 ACTION:READ                


 OPENED freyberg6.npf_k_layer3.txt
 FILE TYPE:OPEN/CLOSE   UNIT 1034   STATUS:OLD                 
 FORMAT:FORMATTED              ACCESS:SEQUENTIAL          
 ACTION:READ                


 OPENED freyberg6.npf_k33_layer1.txt
 FILE TYPE:OPEN/CLOSE   UNIT 1035   STATUS:OLD                 
 FORMAT:FORMATTED              ACCESS:SEQUENTIAL          
 ACTION:READ                


 OPENED freyberg6.npf_k33_layer2.txt
 FILE TYPE:OPEN/CLOSE   UNIT 1036   STATUS:OLD                 
 FORMAT:FORMATTED              ACCESS:SEQUENTIAL          
 ACTION:READ                


 OPENED freyberg6.npf_k33_layer3.txt
 FILE TYPE:OPEN/CLOSE   UNIT 1037   STATUS:OLD                 
 FORMAT:FORMATTED              ACCESS:SEQUENTIAL          
 ACTION:READ                

 K22 not provided.  Assuming K22 = K.
 END PROCESSING GRIDDATA

 STO -- STORAGE PACKAGE, VERSION 1, 5/19/2014 INPUT READ FROM UNIT 1008


 PROCESSING STORAGE OPTIONS
 END OF STORAGE OPTIONS
 PROCESSING GRIDDATA

 OPENED freyberg6.sto_iconvert_layer1.txt
 FILE TYPE:OPEN/CLOSE   UNIT 1038   STATUS:OLD                 
 FORMAT:FORMATTED              ACCESS:SEQUENTIAL          
 ACTION:READ                


 OPENED freyberg6.sto_iconvert_layer2.txt
 FILE TYPE:OPEN/CLOSE   UNIT 1039   STATUS:OLD                 
 FORMAT:FORMATTED              ACCESS:SEQUENTIAL          
 ACTION:READ                


 OPENED freyberg6.sto_iconvert_layer3.txt
 FILE TYPE:OPEN/CLOSE   UNIT 1040   STATUS:OLD                 
 FORMAT:FORMATTED              ACCESS:SEQUENTIAL          
 ACTION:READ                


 OPENED freyberg6.sto_ss_layer1.txt
 FILE TYPE:OPEN/CLOSE   UNIT 1041   STATUS:OLD                 
 FORMAT:FORMATTED              ACCESS:SEQUENTIAL          
 ACTION:READ                


 OPENED freyberg6.sto_ss_layer2.txt
 FILE TYPE:OPEN/CLOSE   UNIT 1042   STATUS:OLD                 
 FORMAT:FORMATTED              ACCESS:SEQUENTIAL          
 ACTION:READ                


 OPENED freyberg6.sto_ss_layer3.txt
 FILE TYPE:OPEN/CLOSE   UNIT 1043   STATUS:OLD                 
 FORMAT:FORMATTED              ACCESS:SEQUENTIAL          
 ACTION:READ                


 OPENED freyberg6.sto_sy_layer1.txt
 FILE TYPE:OPEN/CLOSE   UNIT 1044   STATUS:OLD                 
 FORMAT:FORMATTED              ACCESS:SEQUENTIAL          
 ACTION:READ                


 OPENED freyberg6.sto_sy_layer2.txt
 FILE TYPE:OPEN/CLOSE   UNIT 1045   STATUS:OLD                 
 FORMAT:FORMATTED              ACCESS:SEQUENTIAL          
 ACTION:READ                


 OPENED freyberg6.sto_sy_layer3.txt
 FILE TYPE:OPEN/CLOSE   UNIT 1046   STATUS:OLD                 
 FORMAT:FORMATTED              ACCESS:SEQUENTIAL          
 ACTION:READ                

 END PROCESSING GRIDDATA

The observation utility is active for "FREYBERG6"

Processing observation options:

Text output number of digits of precision set to: 10
The PRINT_INPUT option has been specified.


Observations read from file "head.obs":
Name                                      Type                             Time         Location data
----------------------------------------  -------------------------------  -----------  --------------------------
TRGW_2_2_15                               Continuous HEAD                  All times    "3 3 16"
TRGW_2_2_9                                Continuous HEAD                  All times    "3 3 10"
TRGW_2_3_8                                Continuous HEAD                  All times    "3 4 9"
TRGW_2_9_1                                Continuous HEAD                  All times    "3 10 2"
TRGW_2_13_10                              Continuous HEAD                  All times    "3 14 11"
TRGW_2_15_16                              Continuous HEAD                  All times    "3 16 17"
TRGW_2_21_10                              Continuous HEAD                  All times    "3 22 11"
TRGW_2_22_15                              Continuous HEAD                  All times    "3 23 16"
TRGW_2_24_4                               Continuous HEAD                  All times    "3 25 5"
TRGW_2_26_6                               Continuous HEAD                  All times    "3 27 7"
TRGW_2_29_15                              Continuous HEAD                  All times    "3 30 16"
TRGW_2_33_7                               Continuous HEAD                  All times    "3 34 8"
TRGW_2_34_10                              Continuous HEAD                  All times    "3 35 11"
TRGW_0_2_15                               Continuous HEAD                  All times    "1 3 16"
TRGW_0_2_9                                Continuous HEAD                  All times    "1 3 10"
TRGW_0_3_8                                Continuous HEAD                  All times    "1 4 9"
TRGW_0_9_1                                Continuous HEAD                  All times    "1 10 2"
TRGW_0_13_10                              Continuous HEAD                  All times    "1 14 11"
TRGW_0_15_16                              Continuous HEAD                  All times    "1 16 17"
TRGW_0_21_10                              Continuous HEAD                  All times    "1 22 11"
TRGW_0_22_15                              Continuous HEAD                  All times    "1 23 16"
TRGW_0_24_4                               Continuous HEAD                  All times    "1 25 5"
TRGW_0_26_6                               Continuous HEAD                  All times    "1 27 7"
TRGW_0_29_15                              Continuous HEAD                  All times    "1 30 16"
TRGW_0_33_7                               Continuous HEAD                  All times    "1 34 8"
TRGW_0_34_10                              Continuous HEAD                  All times    "1 35 11"
    BINARY GRID INFORMATION WILL BE WRITTEN TO:
      UNIT NUMBER: 1048
      FILE NAME: /Users/jwhite/Dev/pyemu/examples/freyberg_mf6/freyberg6.dis.grb

 OPENED /Users/jwhite/Dev/pyemu/examples/freyberg_mf6/freyberg6.dis.grb
 FILE TYPE:DATA(BINARY)   UNIT 1048   STATUS:REPLACE             
 FORMAT:UNFORMATTED            ACCESS:STREAM              
 ACTION:READWRITE           

      THE LAST TIME STEP WILL BE PRINTED
      THE LAST TIME STEP WILL BE PRINTED
 PROCESSING OC OPTIONS
    BUDGET INFORMATION WILL BE WRITTEN TO:
      UNIT NUMBER: 1049
      FILE NAME: freyberg6_freyberg.cbc

 OPENED freyberg6_freyberg.cbc
 FILE TYPE:DATA(BINARY)   UNIT 1049   STATUS:REPLACE             
 FORMAT:UNFORMATTED            ACCESS:STREAM              
 ACTION:READWRITE           

    HEAD INFORMATION WILL BE WRITTEN TO:
      UNIT NUMBER: 1050
      FILE NAME: freyberg6_freyberg.hds

 OPENED freyberg6_freyberg.hds
 FILE TYPE:DATA(BINARY)   UNIT 1050   STATUS:REPLACE             
 FORMAT:UNFORMATTED            ACCESS:STREAM              
 ACTION:READWRITE           

 END OF OC OPTIONS

The observation utility is active for "SFR_1"

Processing observation options:



 OPENED freyberg6.sfr_packagedata.txt
 FILE TYPE:OPEN/CLOSE   UNIT 1052   STATUS:OLD                 
 FORMAT:FORMATTED              ACCESS:SEQUENTIAL          
 ACTION:READ                


 PROCESSING SFR PACKAGEDATA
 END OF SFR PACKAGEDATA

 OPENED freyberg6.sfr_connectiondata.txt
 FILE TYPE:OPEN/CLOSE   UNIT 1053   STATUS:OLD                 
 FORMAT:FORMATTED              ACCESS:SEQUENTIAL          
 ACTION:READ                


 PROCESSING SFR CONNECTIONDATA
 END OF SFR CONNECTIONDATA


SFR STATIC REACH DATA
     REACH CELLID                            LENGTH      WIDTH      SLOPE        TOP  THICKNESS         HK  ROUGHNESS  USTR FRAC
--------------------------------------------------------------------------------------------------------------------------------
         1 (1,1,16)                        250.0000     5.0000  0.500E-04    34.0000     1.0000  0.100      0.300E-01     1.0000
         2 (1,2,16)                        250.0000     5.0000  0.500E-04    33.9872     1.0000  0.100      0.300E-01     1.0000
         3 (1,3,16)                        250.0000     5.0000  0.500E-04    33.9744     1.0000  0.100      0.300E-01     1.0000
         4 (1,4,16)                        250.0000     5.0000  0.500E-04    33.9615     1.0000  0.100      0.300E-01     1.0000
         5 (1,5,16)                        250.0000     5.0000  0.500E-04    33.9487     1.0000  0.100      0.300E-01     1.0000
         6 (1,6,16)                        250.0000     5.0000  0.500E-04    33.9359     1.0000  0.100      0.300E-01     1.0000
         7 (1,7,16)                        250.0000     5.0000  0.500E-04    33.9231     1.0000  0.100      0.300E-01     1.0000
         8 (1,8,16)                        250.0000     5.0000  0.500E-04    33.9103     1.0000  0.100      0.300E-01     1.0000
         9 (1,9,16)                        250.0000     5.0000  0.500E-04    33.8974     1.0000  0.100      0.300E-01     1.0000
        10 (1,10,16)                       250.0000     5.0000  0.500E-04    33.8846     1.0000  0.100      0.300E-01     1.0000
        11 (1,11,16)                       250.0000     5.0000  0.500E-04    33.8718     1.0000  0.100      0.300E-01     1.0000
        12 (1,12,16)                       250.0000     5.0000  0.500E-04    33.8590     1.0000  0.100      0.300E-01     1.0000
        13 (1,13,16)                       250.0000     5.0000  0.500E-04    33.8462     1.0000  0.100      0.300E-01     1.0000
        14 (1,14,16)                       250.0000     5.0000  0.500E-04    33.8333     1.0000  0.100      0.300E-01     1.0000
        15 (1,15,16)                       250.0000     5.0000  0.500E-04    33.8205     1.0000  0.100      0.300E-01     1.0000
        16 (1,16,16)                       250.0000     5.0000  0.500E-04    33.8077     1.0000  0.100      0.300E-01     1.0000
        17 (1,17,16)                       250.0000     5.0000  0.500E-04    33.7949     1.0000  0.100      0.300E-01     1.0000
        18 (1,18,16)                       250.0000     5.0000  0.500E-04    33.7820     1.0000  0.100      0.300E-01     1.0000
        19 (1,19,16)                       250.0000     5.0000  0.500E-04    33.7692     1.0000  0.100      0.300E-01     1.0000
        20 (1,20,16)                       250.0000     5.0000  0.500E-04    33.7564     1.0000  0.100      0.300E-01     1.0000
        21 (1,21,16)                       250.0000     5.0000  0.500E-04    33.7436     1.0000  0.100      0.300E-01     1.0000
        22 (1,22,16)                       250.0000     5.0000  0.500E-04    33.7308     1.0000  0.100      0.300E-01     1.0000
        23 (1,23,16)                       250.0000     5.0000  0.500E-04    33.7180     1.0000  0.100      0.300E-01     1.0000
        24 (1,24,16)                       250.0000     5.0000  0.500E-04    33.7051     1.0000  0.100      0.300E-01     1.0000
        25 (1,25,16)                       250.0000     5.0000  0.500E-04    33.6923     1.0000  0.100      0.300E-01     1.0000
        26 (1,26,16)                       250.0000     5.0000  0.500E-04    33.6795     1.0000  0.100      0.300E-01     1.0000
        27 (1,27,16)                       250.0000     5.0000  0.500E-04    33.6667     1.0000  0.100      0.300E-01     1.0000
        28 (1,28,16)                       250.0000     5.0000  0.500E-04    33.6538     1.0000  0.100      0.300E-01     1.0000
        29 (1,29,16)                       250.0000     5.0000  0.500E-04    33.6410     1.0000  0.100      0.300E-01     1.0000
        30 (1,30,16)                       250.0000     5.0000  0.500E-04    33.6282     1.0000  0.100      0.300E-01     1.0000
        31 (1,31,16)                       250.0000     5.0000  0.500E-04    33.6154     1.0000  0.100      0.300E-01     1.0000
        32 (1,32,16)                       250.0000     5.0000  0.500E-04    33.6026     1.0000  0.100      0.300E-01     1.0000
        33 (1,33,16)                       250.0000     5.0000  0.500E-04    33.5897     1.0000  0.100      0.300E-01     1.0000
        34 (1,34,16)                       250.0000     5.0000  0.500E-04    33.5769     1.0000  0.100      0.300E-01     1.0000
        35 (1,35,16)                       250.0000     5.0000  0.500E-04    33.5641     1.0000  0.100      0.300E-01     1.0000
        36 (1,36,16)                       250.0000     5.0000  0.500E-04    33.5513     1.0000  0.100      0.300E-01     1.0000
        37 (1,37,16)                       250.0000     5.0000  0.500E-04    33.5385     1.0000  0.100      0.300E-01     1.0000
        38 (1,38,16)                       250.0000     5.0000  0.500E-04    33.5256     1.0000  0.100      0.300E-01     1.0000
        39 (1,39,16)                       250.0000     5.0000  0.500E-04    33.5128     1.0000  0.100      0.300E-01     1.0000
        40 (1,40,16)                       250.0000     5.0000  0.500E-04    33.5100     1.0000  0.100      0.300E-01     1.0000
--------------------------------------------------------------------------------------------------------------------------------


SFR REACH CONNECTION DATA
                                                           CONNECTED REACH DATA
REACH    1    2    3    4    5    6    7    8    9   10   11   12   13   14   15   16   17   18   19   20   21   22   23   24                                                                                                                                                                               
--------------------------------------------------------------------------------------------------------------------------------
    1    2
    2    1    3
    3    2    4
    4    3    5
    5    4    6
    6    5    7
    7    6    8
    8    7    9
    9    8   10
   10    9   11
   11   10   12
   12   11   13
   13   12   14
   14   13   15
   15   14   16
   16   15   17
   17   16   18
   18   17   19
   19   18   20
   20   19   21
   21   20   22
   22   21   23
   23   22   24
   24   23   25
   25   24   26
   26   25   27
   27   26   28
   28   27   29
   29   28   30
   30   29   31
   31   30   32
   32   31   33
   33   32   34
   34   33   35
   35   34   36
   36   35   37
   37   36   38
   38   37   39
   39   38   40
   40   39
--------------------------------------------------------------------------------------------------------------------------------


SFR DOWNSTREAM CONNECTIONS
                                                            DOWNSTREAM REACHES
REACH    1    2    3    4    5    6    7    8    9   10   11   12   13   14   15   16   17   18   19   20   21   22   23   24                                                                                                                                                                               
--------------------------------------------------------------------------------------------------------------------------------
    1    2
    2    3
    3    4
    4    5
    5    6
    6    7
    7    8
    8    9
    9   10
   10   11
   11   12
   12   13
   13   14
   14   15
   15   16
   16   17
   17   18
   18   19
   19   20
   20   21
   21   22
   22   23
   23   24
   24   25
   25   26
   26   27
   27   28
   28   29
   29   30
   30   31
   31   32
   32   33
   33   34
   34   35
   35   36
   36   37
   37   38
   38   39
   39   40
   40
--------------------------------------------------------------------------------------------------------------------------------


SFR UPSTREAM CONNECTIONS
                                                             UPSTREAM REACHES
REACH    1    2    3    4    5    6    7    8    9   10   11   12   13   14   15   16   17   18   19   20   21   22   23   24                                                                                                                                                                               
--------------------------------------------------------------------------------------------------------------------------------
    1
    2    1
    3    2
    4    3
    5    4
    6    5
    7    6
    8    7
    9    8
   10    9
   11   10
   12   11
   13   12
   14   13
   15   14
   16   15
   17   16
   18   17
   19   18
   20   19
   21   20
   22   21
   23   22
   24   23
   25   24
   26   25
   27   26
   28   27
   29   28
   30   29
   31   30
   32   31
   33   32
   34   33
   35   34
   36   35
   37   36
   38   37
   39   38
   40   39
--------------------------------------------------------------------------------------------------------------------------------


SFR UPSTREAM FRACTIONS
                                               CONNECTED REACHES UPSTREAM FRACTIONS
REACH    1  FRACTION    2  FRACTION    3  FRACTION    4  FRACTION    5  FRACTION    6  FRACTION    7  FRACTION    8  FRACTION                                                                                                                                                                               
--------------------------------------------------------------------------------------------------------------------------------
    1    2    1.0000                                                                                                                                                                                                                                                                                        
    2    3    1.0000                                                                                                                                                                                                                                                                                        
    3    4    1.0000                                                                                                                                                                                                                                                                                        
    4    5    1.0000                                                                                                                                                                                                                                                                                        
    5    6    1.0000                                                                                                                                                                                                                                                                                        
    6    7    1.0000                                                                                                                                                                                                                                                                                        
    7    8    1.0000                                                                                                                                                                                                                                                                                        
    8    9    1.0000                                                                                                                                                                                                                                                                                        
    9   10    1.0000                                                                                                                                                                                                                                                                                        
   10   11    1.0000                                                                                                                                                                                                                                                                                        
   11   12    1.0000                                                                                                                                                                                                                                                                                        
   12   13    1.0000                                                                                                                                                                                                                                                                                        
   13   14    1.0000                                                                                                                                                                                                                                                                                        
   14   15    1.0000                                                                                                                                                                                                                                                                                        
   15   16    1.0000                                                                                                                                                                                                                                                                                        
   16   17    1.0000                                                                                                                                                                                                                                                                                        
   17   18    1.0000                                                                                                                                                                                                                                                                                        
   18   19    1.0000                                                                                                                                                                                                                                                                                        
   19   20    1.0000                                                                                                                                                                                                                                                                                        
   20   21    1.0000                                                                                                                                                                                                                                                                                        
   21   22    1.0000                                                                                                                                                                                                                                                                                        
   22   23    1.0000                                                                                                                                                                                                                                                                                        
   23   24    1.0000                                                                                                                                                                                                                                                                                        
   24   25    1.0000                                                                                                                                                                                                                                                                                        
   25   26    1.0000                                                                                                                                                                                                                                                                                        
   26   27    1.0000                                                                                                                                                                                                                                                                                        
   27   28    1.0000                                                                                                                                                                                                                                                                                        
   28   29    1.0000                                                                                                                                                                                                                                                                                        
   29   30    1.0000                                                                                                                                                                                                                                                                                        
   30   31    1.0000                                                                                                                                                                                                                                                                                        
   31   32    1.0000                                                                                                                                                                                                                                                                                        
   32   33    1.0000                                                                                                                                                                                                                                                                                        
   33   34    1.0000                                                                                                                                                                                                                                                                                        
   34   35    1.0000                                                                                                                                                                                                                                                                                        
   35   36    1.0000                                                                                                                                                                                                                                                                                        
   36   37    1.0000                                                                                                                                                                                                                                                                                        
   37   38    1.0000                                                                                                                                                                                                                                                                                        
   38   39    1.0000                                                                                                                                                                                                                                                                                        
   39   40    1.0000                                                                                                                                                                                                                                                                                        
   40                                                                                                                                                                                                                                                                                                       
--------------------------------------------------------------------------------------------------------------------------------




SFR GEOMETRY DATA
----------------------------------------
    ID = 1
    NAME = HEADWATER
    GEOMETRY TYPE = RECTANGULAR CH
    WIDTH =     5.00000    
    LENGTH =     250.000    
    ------------------------------------

    ID = 2
    NAME = HEADWATER
    GEOMETRY TYPE = RECTANGULAR CH
    WIDTH =     5.00000    
    LENGTH =     250.000    
    ------------------------------------

    ID = 3
    NAME = HEADWATER
    GEOMETRY TYPE = RECTANGULAR CH
    WIDTH =     5.00000    
    LENGTH =     250.000    
    ------------------------------------

    ID = 4
    NAME = HEADWATER
    GEOMETRY TYPE = RECTANGULAR CH
    WIDTH =     5.00000    
    LENGTH =     250.000    
    ------------------------------------

    ID = 5
    NAME = HEADWATER
    GEOMETRY TYPE = RECTANGULAR CH
    WIDTH =     5.00000    
    LENGTH =     250.000    
    ------------------------------------

    ID = 6
    NAME = HEADWATER
    GEOMETRY TYPE = RECTANGULAR CH
    WIDTH =     5.00000    
    LENGTH =     250.000    
    ------------------------------------

    ID = 7
    NAME = HEADWATER
    GEOMETRY TYPE = RECTANGULAR CH
    WIDTH =     5.00000    
    LENGTH =     250.000    
    ------------------------------------

    ID = 8
    NAME = HEADWATER
    GEOMETRY TYPE = RECTANGULAR CH
    WIDTH =     5.00000    
    LENGTH =     250.000    
    ------------------------------------

    ID = 9
    NAME = HEADWATER
    GEOMETRY TYPE = RECTANGULAR CH
    WIDTH =     5.00000    
    LENGTH =     250.000    
    ------------------------------------

    ID = 10
    NAME = HEADWATER
    GEOMETRY TYPE = RECTANGULAR CH
    WIDTH =     5.00000    
    LENGTH =     250.000    
    ------------------------------------

    ID = 11
    NAME = HEADWATER
    GEOMETRY TYPE = RECTANGULAR CH
    WIDTH =     5.00000    
    LENGTH =     250.000    
    ------------------------------------

    ID = 12
    NAME = HEADWATER
    GEOMETRY TYPE = RECTANGULAR CH
    WIDTH =     5.00000    
    LENGTH =     250.000    
    ------------------------------------

    ID = 13
    NAME = HEADWATER
    GEOMETRY TYPE = RECTANGULAR CH
    WIDTH =     5.00000    
    LENGTH =     250.000    
    ------------------------------------

    ID = 14
    NAME = HEADWATER
    GEOMETRY TYPE = RECTANGULAR CH
    WIDTH =     5.00000    
    LENGTH =     250.000    
    ------------------------------------

    ID = 15
    NAME = HEADWATER
    GEOMETRY TYPE = RECTANGULAR CH
    WIDTH =     5.00000    
    LENGTH =     250.000    
    ------------------------------------

    ID = 16
    NAME = HEADWATER
    GEOMETRY TYPE = RECTANGULAR CH
    WIDTH =     5.00000    
    LENGTH =     250.000    
    ------------------------------------

    ID = 17
    NAME = HEADWATER
    GEOMETRY TYPE = RECTANGULAR CH
    WIDTH =     5.00000    
    LENGTH =     250.000    
    ------------------------------------

    ID = 18
    NAME = HEADWATER
    GEOMETRY TYPE = RECTANGULAR CH
    WIDTH =     5.00000    
    LENGTH =     250.000    
    ------------------------------------

    ID = 19
    NAME = HEADWATER
    GEOMETRY TYPE = RECTANGULAR CH
    WIDTH =     5.00000    
    LENGTH =     250.000    
    ------------------------------------

    ID = 20
    NAME = HEADWATER
    GEOMETRY TYPE = RECTANGULAR CH
    WIDTH =     5.00000    
    LENGTH =     250.000    
    ------------------------------------

    ID = 21
    NAME = HEADWATER
    GEOMETRY TYPE = RECTANGULAR CH
    WIDTH =     5.00000    
    LENGTH =     250.000    
    ------------------------------------

    ID = 22
    NAME = TAILWATER
    GEOMETRY TYPE = RECTANGULAR CH
    WIDTH =     5.00000    
    LENGTH =     250.000    
    ------------------------------------

    ID = 23
    NAME = TAILWATER
    GEOMETRY TYPE = RECTANGULAR CH
    WIDTH =     5.00000    
    LENGTH =     250.000    
    ------------------------------------

    ID = 24
    NAME = TAILWATER
    GEOMETRY TYPE = RECTANGULAR CH
    WIDTH =     5.00000    
    LENGTH =     250.000    
    ------------------------------------

    ID = 25
    NAME = TAILWATER
    GEOMETRY TYPE = RECTANGULAR CH
    WIDTH =     5.00000    
    LENGTH =     250.000    
    ------------------------------------

    ID = 26
    NAME = TAILWATER
    GEOMETRY TYPE = RECTANGULAR CH
    WIDTH =     5.00000    
    LENGTH =     250.000    
    ------------------------------------

    ID = 27
    NAME = TAILWATER
    GEOMETRY TYPE = RECTANGULAR CH
    WIDTH =     5.00000    
    LENGTH =     250.000    
    ------------------------------------

    ID = 28
    NAME = TAILWATER
    GEOMETRY TYPE = RECTANGULAR CH
    WIDTH =     5.00000    
    LENGTH =     250.000    
    ------------------------------------

    ID = 29
    NAME = TAILWATER
    GEOMETRY TYPE = RECTANGULAR CH
    WIDTH =     5.00000    
    LENGTH =     250.000    
    ------------------------------------

    ID = 30
    NAME = TAILWATER
    GEOMETRY TYPE = RECTANGULAR CH
    WIDTH =     5.00000    
    LENGTH =     250.000    
    ------------------------------------

    ID = 31
    NAME = TAILWATER
    GEOMETRY TYPE = RECTANGULAR CH
    WIDTH =     5.00000    
    LENGTH =     250.000    
    ------------------------------------

    ID = 32
    NAME = TAILWATER
    GEOMETRY TYPE = RECTANGULAR CH
    WIDTH =     5.00000    
    LENGTH =     250.000    
    ------------------------------------

    ID = 33
    NAME = TAILWATER
    GEOMETRY TYPE = RECTANGULAR CH
    WIDTH =     5.00000    
    LENGTH =     250.000    
    ------------------------------------

    ID = 34
    NAME = TAILWATER
    GEOMETRY TYPE = RECTANGULAR CH
    WIDTH =     5.00000    
    LENGTH =     250.000    
    ------------------------------------

    ID = 35
    NAME = TAILWATER
    GEOMETRY TYPE = RECTANGULAR CH
    WIDTH =     5.00000    
    LENGTH =     250.000    
    ------------------------------------

    ID = 36
    NAME = TAILWATER
    GEOMETRY TYPE = RECTANGULAR CH
    WIDTH =     5.00000    
    LENGTH =     250.000    
    ------------------------------------

    ID = 37
    NAME = TAILWATER
    GEOMETRY TYPE = RECTANGULAR CH
    WIDTH =     5.00000    
    LENGTH =     250.000    
    ------------------------------------

    ID = 38
    NAME = TAILWATER
    GEOMETRY TYPE = RECTANGULAR CH
    WIDTH =     5.00000    
    LENGTH =     250.000    
    ------------------------------------

    ID = 39
    NAME = TAILWATER
    GEOMETRY TYPE = RECTANGULAR CH
    WIDTH =     5.00000    
    LENGTH =     250.000    
    ------------------------------------

    ID = 40
    NAME = TAILWATER
    GEOMETRY TYPE = RECTANGULAR CH
    WIDTH =     5.00000    
    LENGTH =     250.000    
    ------------------------------------

----------------------------------------

 BEGIN READING OUTPUT CONTROL FOR STRESS PERIOD 1
      ALL TIME STEPS WILL BE SAVED
      ALL TIME STEPS WILL BE SAVED
      ALL TIME STEPS WILL BE PRINTED

 END READING OUTPUT CONTROL FOR STRESS PERIOD 1


 UPDATING STORAGE VALUES
 END UPDATING STORAGE VALUES


 STRESS PERIOD 1 IS STEADY-STATE


 OPENED freyberg6.wel_stress_period_data_1.txt
 FILE TYPE:OPEN/CLOSE   UNIT 1054   STATUS:OLD                 
 FORMAT:FORMATTED              ACCESS:SEQUENTIAL          
 ACTION:READ                


 WEL NO.  LAYER    ROW    COL     STRESS RATE         
 -----------------------------------------------------
      1      3     10     17      -175.0    
      2      3     12     14      -175.0    
      3      3     21     15      -175.0    
      4      3     27     11      -175.0    
      5      3     30      7      -175.0    
      6      3     35     13      -175.0    

 OPENED freyberg6.ghb_stress_period_data_1.txt
 FILE TYPE:OPEN/CLOSE   UNIT 1055   STATUS:OLD                 
 FORMAT:FORMATTED              ACCESS:SEQUENTIAL          
 ACTION:READ                


 GHB NO.  LAYER    ROW    COL           STAGE     CONDUCTANCE         
 ---------------------------------------------------------------------
      1      1     40      6       33.50           70.00    
      2      1     40      7       33.50           70.00    
      3      1     40      8       33.50           70.00    
      4      1     40      9       33.50           70.00    
      5      1     40     10       33.50           70.00    
      6      1     40     11       33.50           70.00    
      7      1     40     12       33.50           70.00    
      8      1     40     13       33.50           70.00    
      9      1     40     14       33.50           70.00    
     10      1     40     15       33.50           70.00    
     11      2     40      6       33.50           70.00    
     12      2     40      7       33.50           70.00    
     13      2     40      8       33.50           70.00    
     14      2     40      9       33.50           70.00    
     15      2     40     10       33.50           70.00    
     16      2     40     11       33.50           70.00    
     17      2     40     12       33.50           70.00    
     18      2     40     13       33.50           70.00    
     19      2     40     14       33.50           70.00    
     20      2     40     15       33.50           70.00    
     21      3     40      6       33.50           70.00    
     22      3     40      7       33.50           70.00    
     23      3     40      8       33.50           70.00    
     24      3     40      9       33.50           70.00    
     25      3     40     10       33.50           70.00    
     26      3     40     11       33.50           70.00    
     27      3     40     12       33.50           70.00    
     28      3     40     13       33.50           70.00    
     29      3     40     14       33.50           70.00    
     30      3     40     15       33.50           70.00    

 OPENED freyberg6.rch_recharge_1.txt
 FILE TYPE:OPEN/CLOSE   UNIT 1056   STATUS:OLD                 
 FORMAT:FORMATTED              ACCESS:SEQUENTIAL          
 ACTION:READ                


 OPENED freyberg6.sfr_perioddata_1.txt
 FILE TYPE:OPEN/CLOSE   UNIT 1057   STATUS:OLD                 
 FORMAT:FORMATTED              ACCESS:SEQUENTIAL          
 ACTION:READ                


 READING SFR DATA FOR PERIOD      1

        REACH KEYWORD AND DATA
   ------------------------------------------------------------------------------
            1 INFLOW  100.000000000000

 END OF SFR DATA FOR PERIOD      1

 UBDSV1 SAVING     FLOW-JA-FACE ON UNIT   1049 AT TIME STEP      1, STRESS PERIOD      1
 UBDSV06 SAVING              WEL IN MODEL FREYBERG6        PACKAGE FREYBERG6       CONNECTED TO MODEL FREYBERG6        PACKAGE WEL-1            ON UNIT   1049 AT TIME STEP      1, STRESS PERIOD      1

              WEL (WEL-1)   PERIOD 1   STEP 1
 BOUNDARY        1  CELL            (3,10,17)   RATE    -175.000    
 BOUNDARY        2  CELL            (3,12,14)   RATE    -175.000    
 BOUNDARY        3  CELL            (3,21,15)   RATE    -175.000    
 BOUNDARY        4  CELL            (3,27,11)   RATE    -175.000    
 BOUNDARY        5  CELL             (3,30,7)   RATE    -175.000    
 BOUNDARY        6  CELL            (3,35,13)   RATE    -175.000    

 UBDSV06 SAVING              GHB IN MODEL FREYBERG6        PACKAGE FREYBERG6       CONNECTED TO MODEL FREYBERG6        PACKAGE GHB-1            ON UNIT   1049 AT TIME STEP      1, STRESS PERIOD      1

              GHB (GHB-1)   PERIOD 1   STEP 1
 BOUNDARY        1  CELL             (1,40,6)   RATE    -14.7187    
 BOUNDARY        2  CELL             (1,40,7)   RATE    -14.5629    
 BOUNDARY        3  CELL             (1,40,8)   RATE    -14.3029    
 BOUNDARY        4  CELL             (1,40,9)   RATE    -13.9956    
 BOUNDARY        5  CELL            (1,40,10)   RATE    -13.6903    
 BOUNDARY        6  CELL            (1,40,11)   RATE    -13.4171    
 BOUNDARY        7  CELL            (1,40,12)   RATE    -13.2076    
 BOUNDARY        8  CELL            (1,40,13)   RATE    -13.1034    
 BOUNDARY        9  CELL            (1,40,14)   RATE    -13.1721    
 BOUNDARY       10  CELL            (1,40,15)   RATE    -13.5115    
 BOUNDARY       11  CELL             (2,40,6)   RATE    -15.2537    
 BOUNDARY       12  CELL             (2,40,7)   RATE    -15.0903    
 BOUNDARY       13  CELL             (2,40,8)   RATE    -14.8177    
 BOUNDARY       14  CELL             (2,40,9)   RATE    -14.4956    
 BOUNDARY       15  CELL            (2,40,10)   RATE    -14.1756    
 BOUNDARY       16  CELL            (2,40,11)   RATE    -13.8892    
 BOUNDARY       17  CELL            (2,40,12)   RATE    -13.6698    
 BOUNDARY       18  CELL            (2,40,13)   RATE    -13.5607    
 BOUNDARY       19  CELL            (2,40,14)   RATE    -13.6330    
 BOUNDARY       20  CELL            (2,40,15)   RATE    -13.9881    
 BOUNDARY       21  CELL             (3,40,6)   RATE    -16.5914    
 BOUNDARY       22  CELL             (3,40,7)   RATE    -16.4132    
 BOUNDARY       23  CELL             (3,40,8)   RATE    -16.1148    
 BOUNDARY       24  CELL             (3,40,9)   RATE    -15.7622    
 BOUNDARY       25  CELL            (3,40,10)   RATE    -15.4143    
 BOUNDARY       26  CELL            (3,40,11)   RATE    -15.1032    
 BOUNDARY       27  CELL            (3,40,12)   RATE    -14.8654    
 BOUNDARY       28  CELL            (3,40,13)   RATE    -14.7456    
 BOUNDARY       29  CELL            (3,40,14)   RATE    -14.8254    
 BOUNDARY       30  CELL            (3,40,15)   RATE    -15.2150    

 UBDSV06 SAVING              RCH IN MODEL FREYBERG6        PACKAGE FREYBERG6       CONNECTED TO MODEL FREYBERG6        PACKAGE RCH-1            ON UNIT   1049 AT TIME STEP      1, STRESS PERIOD      1
 UBDSV06 SAVING              SFR IN MODEL FREYBERG6        PACKAGE FREYBERG6       CONNECTED TO MODEL FREYBERG6        PACKAGE SFR_1            ON UNIT   1049 AT TIME STEP      1, STRESS PERIOD      1

 HEAD WILL BE SAVED ON UNIT 1050 AT END OF TIME STEP    1, STRESS PERIOD    1


  SFR_1 BUDGET FOR ENTIRE MODEL AT END OF TIME STEP    1, STRESS PERIOD   1
  ------------------------------------------------------------------------------

     CUMULATIVE SFR_1      L**3       RATES FOR THIS TIME STEP      L**3/T
     ------------------                 ------------------------

           IN:                                      IN:
           ---                                      ---
          EXT-INFLOW =         100.0000            EXT-INFLOW =         100.0000
            RAINFALL =           0.0000              RAINFALL =           0.0000
              RUNOFF =           0.0000                RUNOFF =           0.0000
                 GWF =        1122.5967                   GWF =        1122.5967
         EVAPORATION =           0.0000           EVAPORATION =           0.0000
         EXT-OUTFLOW =           0.0000           EXT-OUTFLOW =           0.0000

            TOTAL IN =        1222.5967              TOTAL IN =        1222.5967

          OUT:                                     OUT:
          ----                                     ----
          EXT-INFLOW =           0.0000            EXT-INFLOW =           0.0000
            RAINFALL =           0.0000              RAINFALL =           0.0000
              RUNOFF =           0.0000                RUNOFF =           0.0000
                 GWF =           0.0000                   GWF =           0.0000
         EVAPORATION =           0.0000           EVAPORATION =           0.0000
         EXT-OUTFLOW =        1222.5967           EXT-OUTFLOW =        1222.5967

           TOTAL OUT =        1222.5967             TOTAL OUT =        1222.5967

            IN - OUT =           0.0000              IN - OUT =           0.0000

 PERCENT DISCREPANCY =           0.00     PERCENT DISCREPANCY =           0.00



  VOLUME BUDGET FOR ENTIRE MODEL AT END OF TIME STEP    1, STRESS PERIOD   1
  ---------------------------------------------------------------------------------------------------

     CUMULATIVE VOLUME      L**3       RATES FOR THIS TIME STEP      L**3/T          PACKAGE NAME    
     ------------------                 ------------------------                     ----------------

           IN:                                      IN:
           ---                                      ---
              STO-SS =           0.0000                STO-SS =           0.0000     STORAGE         
              STO-SY =           0.0000                STO-SY =           0.0000     STORAGE         
                 WEL =           0.0000                   WEL =           0.0000     WEL-1           
                 GHB =           0.0000                   GHB =           0.0000     GHB-1           
                 RCH =        2592.4320                   RCH =        2592.4320     RCH-1           
                 SFR =           0.0000                   SFR =           0.0000     SFR_1           

            TOTAL IN =        2592.4320              TOTAL IN =        2592.4320

          OUT:                                     OUT:
          ----                                     ----
              STO-SS =           0.0000                STO-SS =           0.0000     STORAGE         
              STO-SY =           0.0000                STO-SY =           0.0000     STORAGE         
                 WEL =        1050.0000                   WEL =        1050.0000     WEL-1           
                 GHB =         435.3062                   GHB =         435.3062     GHB-1           
                 RCH =           0.0000                   RCH =           0.0000     RCH-1           
                 SFR =        1121.6742                   SFR =        1121.6742     SFR_1           

           TOTAL OUT =        2606.9804             TOTAL OUT =        2606.9804

            IN - OUT =         -14.5484              IN - OUT =         -14.5484

 PERCENT DISCREPANCY =          -0.56     PERCENT DISCREPANCY =          -0.56




         TIME SUMMARY AT END OF TIME STEP    1 IN STRESS PERIOD    1
                    SECONDS     MINUTES      HOURS       DAYS        YEARS
                    -----------------------------------------------------------
   TIME STEP LENGTH  86400.      1440.0      24.000      1.0000     2.73785E-03
 STRESS PERIOD TIME  86400.      1440.0      24.000      1.0000     2.73785E-03
         TOTAL TIME  86400.      1440.0      24.000      1.0000     2.73785E-03

 END OF FILE DETECTED IN OUTPUT CONTROL.
 CURRENT OUTPUT CONTROL SETTINGS WILL BE 
 REPEATED UNTIL THE END OF THE SIMULATION.

 OUTPUT CONTROL FOR STRESS PERIOD 2 IS REPEATED USING SETTINGS FROM A PREVIOUS STRESS PERIOD.


 UPDATING STORAGE VALUES
 END UPDATING STORAGE VALUES


 STRESS PERIOD 2 IS TRANSIENT


 OPENED freyberg6.wel_stress_period_data_2.txt
 FILE TYPE:OPEN/CLOSE   UNIT 1058   STATUS:OLD                 
 FORMAT:FORMATTED              ACCESS:SEQUENTIAL          
 ACTION:READ                


 WEL NO.  LAYER    ROW    COL     STRESS RATE         
 -----------------------------------------------------
      1      3     10     17      -62.72    
      2      3     12     14      -62.72    
      3      3     21     15      -62.72    
      4      3     27     11      -62.72    
      5      3     30      7      -62.72    
      6      3     35     13      -62.72    

 REUSING GHBS FROM LAST STRESS PERIOD

 OPENED freyberg6.rch_recharge_2.txt
 FILE TYPE:OPEN/CLOSE   UNIT 1059   STATUS:OLD                 
 FORMAT:FORMATTED              ACCESS:SEQUENTIAL          
 ACTION:READ                


 OPENED freyberg6.sfr_perioddata_2.txt
 FILE TYPE:OPEN/CLOSE   UNIT 1060   STATUS:OLD                 
 FORMAT:FORMATTED              ACCESS:SEQUENTIAL          
 ACTION:READ                


 READING SFR DATA FOR PERIOD      2

        REACH KEYWORD AND DATA
   ------------------------------------------------------------------------------
            1 INFLOW  154.695617675781

 END OF SFR DATA FOR PERIOD      2

 UBDSV1 SAVING     FLOW-JA-FACE ON UNIT   1049 AT TIME STEP      1, STRESS PERIOD      2
 UBDSV06 SAVING              WEL IN MODEL FREYBERG6        PACKAGE FREYBERG6       CONNECTED TO MODEL FREYBERG6        PACKAGE WEL-1            ON UNIT   1049 AT TIME STEP      1, STRESS PERIOD      2

              WEL (WEL-1)   PERIOD 2   STEP 1
 BOUNDARY        1  CELL            (3,10,17)   RATE    -62.7215    
 BOUNDARY        2  CELL            (3,12,14)   RATE    -62.7215    
 BOUNDARY        3  CELL            (3,21,15)   RATE    -62.7215    
 BOUNDARY        4  CELL            (3,27,11)   RATE    -62.7215    
 BOUNDARY        5  CELL             (3,30,7)   RATE    -62.7215    
 BOUNDARY        6  CELL            (3,35,13)   RATE    -62.7215    

 UBDSV06 SAVING              GHB IN MODEL FREYBERG6        PACKAGE FREYBERG6       CONNECTED TO MODEL FREYBERG6        PACKAGE GHB-1            ON UNIT   1049 AT TIME STEP      1, STRESS PERIOD      2

              GHB (GHB-1)   PERIOD 2   STEP 1
 BOUNDARY        1  CELL             (1,40,6)   RATE    -18.2106    
 BOUNDARY        2  CELL             (1,40,7)   RATE    -18.0610    
 BOUNDARY        3  CELL             (1,40,8)   RATE    -17.8172    
 BOUNDARY        4  CELL             (1,40,9)   RATE    -17.5387    
 BOUNDARY        5  CELL            (1,40,10)   RATE    -17.2724    
 BOUNDARY        6  CELL            (1,40,11)   RATE    -17.0383    
 BOUNDARY        7  CELL            (1,40,12)   RATE    -16.8556    
 BOUNDARY        8  CELL            (1,40,13)   RATE    -16.7549    
 BOUNDARY        9  CELL            (1,40,14)   RATE    -16.8115    
 BOUNDARY       10  CELL            (1,40,15)   RATE    -17.1675    
 BOUNDARY       11  CELL             (2,40,6)   RATE    -18.8657    
 BOUNDARY       12  CELL             (2,40,7)   RATE    -18.7090    
 BOUNDARY       13  CELL             (2,40,8)   RATE    -18.4536    
 BOUNDARY       14  CELL             (2,40,9)   RATE    -18.1620    
 BOUNDARY       15  CELL            (2,40,10)   RATE    -17.8835    
 BOUNDARY       16  CELL            (2,40,11)   RATE    -17.6389    
 BOUNDARY       17  CELL            (2,40,12)   RATE    -17.4478    
 BOUNDARY       18  CELL            (2,40,13)   RATE    -17.3425    
 BOUNDARY       19  CELL            (2,40,14)   RATE    -17.4023    
 BOUNDARY       20  CELL            (2,40,15)   RATE    -17.7738    
 BOUNDARY       21  CELL             (3,40,6)   RATE    -20.5137    
 BOUNDARY       22  CELL             (3,40,7)   RATE    -20.3433    
 BOUNDARY       23  CELL             (3,40,8)   RATE    -20.0645    
 BOUNDARY       24  CELL             (3,40,9)   RATE    -19.7462    
 BOUNDARY       25  CELL            (3,40,10)   RATE    -19.4456    
 BOUNDARY       26  CELL            (3,40,11)   RATE    -19.1819    
 BOUNDARY       27  CELL            (3,40,12)   RATE    -18.9766    
 BOUNDARY       28  CELL            (3,40,13)   RATE    -18.8610    
 BOUNDARY       29  CELL            (3,40,14)   RATE    -18.9271    
 BOUNDARY       30  CELL            (3,40,15)   RATE    -19.3332    

 UBDSV06 SAVING              RCH IN MODEL FREYBERG6        PACKAGE FREYBERG6       CONNECTED TO MODEL FREYBERG6        PACKAGE RCH-1            ON UNIT   1049 AT TIME STEP      1, STRESS PERIOD      2
 UBDSV06 SAVING              SFR IN MODEL FREYBERG6        PACKAGE FREYBERG6       CONNECTED TO MODEL FREYBERG6        PACKAGE SFR_1            ON UNIT   1049 AT TIME STEP      1, STRESS PERIOD      2

 HEAD WILL BE SAVED ON UNIT 1050 AT END OF TIME STEP    1, STRESS PERIOD    2


  SFR_1 BUDGET FOR ENTIRE MODEL AT END OF TIME STEP    1, STRESS PERIOD   2
  ------------------------------------------------------------------------------

     CUMULATIVE SFR_1      L**3       RATES FOR THIS TIME STEP      L**3/T
     ------------------                 ------------------------

           IN:                                      IN:
           ---                                      ---
          EXT-INFLOW =        4895.5641            EXT-INFLOW =         154.6956
            RAINFALL =           0.0000              RAINFALL =           0.0000
              RUNOFF =           0.0000                RUNOFF =           0.0000
                 GWF =       47287.2569                   GWF =        1489.1826
         EVAPORATION =           0.0000           EVAPORATION =           0.0000
         EXT-OUTFLOW =           0.0000           EXT-OUTFLOW =           0.0000

            TOTAL IN =       52182.8210              TOTAL IN =        1643.8782

          OUT:                                     OUT:
          ----                                     ----
          EXT-INFLOW =           0.0000            EXT-INFLOW =           0.0000
            RAINFALL =           0.0000              RAINFALL =           0.0000
              RUNOFF =           0.0000                RUNOFF =           0.0000
                 GWF =           0.0000                   GWF =           0.0000
         EVAPORATION =           0.0000           EVAPORATION =           0.0000
         EXT-OUTFLOW =       52182.8210           EXT-OUTFLOW =        1643.8782

           TOTAL OUT =       52182.8210             TOTAL OUT =        1643.8782

            IN - OUT =       7.2760E-12              IN - OUT =       2.2737E-13

 PERCENT DISCREPANCY =           0.00     PERCENT DISCREPANCY =           0.00



  VOLUME BUDGET FOR ENTIRE MODEL AT END OF TIME STEP    1, STRESS PERIOD   2
  ---------------------------------------------------------------------------------------------------

     CUMULATIVE VOLUME      L**3       RATES FOR THIS TIME STEP      L**3/T          PACKAGE NAME    
     ------------------                 ------------------------                     ----------------

           IN:                                      IN:
           ---                                      ---
              STO-SS =           0.0000                STO-SS =           0.0000     STORAGE         
              STO-SY =           0.0000                STO-SY =           0.0000     STORAGE         
                 WEL =           0.0000                   WEL =           0.0000     WEL-1           
                 GHB =           0.0000                   GHB =           0.0000     GHB-1           
                 RCH =      126914.1725                   RCH =        4010.3787     RCH-1           
                 SFR =           0.0000                   SFR =           0.0000     SFR_1           

            TOTAL IN =      126914.1725              TOTAL IN =        4010.3787

          OUT:                                     OUT:
          ----                                     ----
              STO-SS =         312.6557                STO-SS =          10.0857     STORAGE         
              STO-SY =       48382.6519                STO-SY =        1560.7307     STORAGE         
                 WEL =       12716.1990                   WEL =         376.3290     WEL-1           
                 GHB =       17441.9091                   GHB =         548.6001     GHB-1           
                 RCH =           0.0000                   RCH =           0.0000     RCH-1           
                 SFR =       47731.0660                   SFR =        1503.5288     SFR_1           

           TOTAL OUT =      126584.4816             TOTAL OUT =        3999.2742

            IN - OUT =         329.6909              IN - OUT =          11.1045

 PERCENT DISCREPANCY =           0.26     PERCENT DISCREPANCY =           0.28




         TIME SUMMARY AT END OF TIME STEP    1 IN STRESS PERIOD    2
                    SECONDS     MINUTES      HOURS       DAYS        YEARS
                    -----------------------------------------------------------
   TIME STEP LENGTH 2.67840E+06  44640.      744.00      31.000     8.48734E-02
 STRESS PERIOD TIME 2.67840E+06  44640.      744.00      31.000     8.48734E-02
         TOTAL TIME 2.76480E+06  46080.      768.00      32.000     8.76112E-02

 OUTPUT CONTROL FOR STRESS PERIOD 3 IS REPEATED USING SETTINGS FROM A PREVIOUS STRESS PERIOD.


 STRESS PERIOD 3 IS TRANSIENT


 OPENED freyberg6.wel_stress_period_data_3.txt
 FILE TYPE:OPEN/CLOSE   UNIT 1061   STATUS:OLD                 
 FORMAT:FORMATTED              ACCESS:SEQUENTIAL          
 ACTION:READ                


 WEL NO.  LAYER    ROW    COL     STRESS RATE         
 -----------------------------------------------------
      1      3     10     17      -69.59    
      2      3     12     14      -69.59    
      3      3     21     15      -69.59    
      4      3     27     11      -69.59    
      5      3     30      7      -69.59    
      6      3     35     13      -69.59    

 REUSING GHBS FROM LAST STRESS PERIOD

 OPENED freyberg6.rch_recharge_3.txt
 FILE TYPE:OPEN/CLOSE   UNIT 1062   STATUS:OLD                 
 FORMAT:FORMATTED              ACCESS:SEQUENTIAL          
 ACTION:READ                


 OPENED freyberg6.sfr_perioddata_3.txt
 FILE TYPE:OPEN/CLOSE   UNIT 1063   STATUS:OLD                 
 FORMAT:FORMATTED              ACCESS:SEQUENTIAL          
 ACTION:READ                


 READING SFR DATA FOR PERIOD      3

        REACH KEYWORD AND DATA
   ------------------------------------------------------------------------------
            1 INFLOW  164.980606079102

 END OF SFR DATA FOR PERIOD      3

 UBDSV1 SAVING     FLOW-JA-FACE ON UNIT   1049 AT TIME STEP      1, STRESS PERIOD      3
 UBDSV06 SAVING              WEL IN MODEL FREYBERG6        PACKAGE FREYBERG6       CONNECTED TO MODEL FREYBERG6        PACKAGE WEL-1            ON UNIT   1049 AT TIME STEP      1, STRESS PERIOD      3

              WEL (WEL-1)   PERIOD 3   STEP 1
 BOUNDARY        1  CELL            (3,10,17)   RATE    -69.5912    
 BOUNDARY        2  CELL            (3,12,14)   RATE    -69.5912    
 BOUNDARY        3  CELL            (3,21,15)   RATE    -69.5912    
 BOUNDARY        4  CELL            (3,27,11)   RATE    -69.5912    
 BOUNDARY        5  CELL             (3,30,7)   RATE    -69.5912    
 BOUNDARY        6  CELL            (3,35,13)   RATE    -69.5912    

 UBDSV06 SAVING              GHB IN MODEL FREYBERG6        PACKAGE FREYBERG6       CONNECTED TO MODEL FREYBERG6        PACKAGE GHB-1            ON UNIT   1049 AT TIME STEP      1, STRESS PERIOD      3

              GHB (GHB-1)   PERIOD 3   STEP 1
 BOUNDARY        1  CELL             (1,40,6)   RATE    -20.9865    
 BOUNDARY        2  CELL             (1,40,7)   RATE    -20.8206    
 BOUNDARY        3  CELL             (1,40,8)   RATE    -20.5504    
 BOUNDARY        4  CELL             (1,40,9)   RATE    -20.2417    
 BOUNDARY        5  CELL            (1,40,10)   RATE    -19.9454    
 BOUNDARY        6  CELL            (1,40,11)   RATE    -19.6812    
 BOUNDARY        7  CELL            (1,40,12)   RATE    -19.4677    
 BOUNDARY        8  CELL            (1,40,13)   RATE    -19.3386    
 BOUNDARY        9  CELL            (1,40,14)   RATE    -19.3803    
 BOUNDARY       10  CELL            (1,40,15)   RATE    -19.7546    
 BOUNDARY       11  CELL             (2,40,6)   RATE    -21.7493    
 BOUNDARY       12  CELL             (2,40,7)   RATE    -21.5753    
 BOUNDARY       13  CELL             (2,40,8)   RATE    -21.2916    
 BOUNDARY       14  CELL             (2,40,9)   RATE    -20.9675    
 BOUNDARY       15  CELL            (2,40,10)   RATE    -20.6567    
 BOUNDARY       16  CELL            (2,40,11)   RATE    -20.3796    
 BOUNDARY       17  CELL            (2,40,12)   RATE    -20.1556    
 BOUNDARY       18  CELL            (2,40,13)   RATE    -20.0201    
 BOUNDARY       19  CELL            (2,40,14)   RATE    -20.0641    
 BOUNDARY       20  CELL            (2,40,15)   RATE    -20.4560    
 BOUNDARY       21  CELL             (3,40,6)   RATE    -23.6570    
 BOUNDARY       22  CELL             (3,40,7)   RATE    -23.4674    
 BOUNDARY       23  CELL             (3,40,8)   RATE    -23.1573    
 BOUNDARY       24  CELL             (3,40,9)   RATE    -22.8028    
 BOUNDARY       25  CELL            (3,40,10)   RATE    -22.4665    
 BOUNDARY       26  CELL            (3,40,11)   RATE    -22.1670    
 BOUNDARY       27  CELL            (3,40,12)   RATE    -21.9256    
 BOUNDARY       28  CELL            (3,40,13)   RATE    -21.7764    
 BOUNDARY       29  CELL            (3,40,14)   RATE    -21.8248    
 BOUNDARY       30  CELL            (3,40,15)   RATE    -22.2550    

 UBDSV06 SAVING              RCH IN MODEL FREYBERG6        PACKAGE FREYBERG6       CONNECTED TO MODEL FREYBERG6        PACKAGE RCH-1            ON UNIT   1049 AT TIME STEP      1, STRESS PERIOD      3
 UBDSV06 SAVING              SFR IN MODEL FREYBERG6        PACKAGE FREYBERG6       CONNECTED TO MODEL FREYBERG6        PACKAGE SFR_1            ON UNIT   1049 AT TIME STEP      1, STRESS PERIOD      3

 HEAD WILL BE SAVED ON UNIT 1050 AT END OF TIME STEP    1, STRESS PERIOD    3


  SFR_1 BUDGET FOR ENTIRE MODEL AT END OF TIME STEP    1, STRESS PERIOD   3
  ------------------------------------------------------------------------------

     CUMULATIVE SFR_1      L**3       RATES FOR THIS TIME STEP      L**3/T
     ------------------                 ------------------------

           IN:                                      IN:
           ---                                      ---
          EXT-INFLOW =        9680.0017            EXT-INFLOW =         164.9806
            RAINFALL =           0.0000              RAINFALL =           0.0000
              RUNOFF =           0.0000                RUNOFF =           0.0000
                 GWF =       99131.6842                   GWF =        1787.7389
         EVAPORATION =           0.0000           EVAPORATION =           0.0000
         EXT-OUTFLOW =           0.0000           EXT-OUTFLOW =           0.0000

            TOTAL IN =      108811.6859              TOTAL IN =        1952.7195

          OUT:                                     OUT:
          ----                                     ----
          EXT-INFLOW =           0.0000            EXT-INFLOW =           0.0000
            RAINFALL =           0.0000              RAINFALL =           0.0000
              RUNOFF =           0.0000                RUNOFF =           0.0000
                 GWF =           0.0000                   GWF =           0.0000
         EVAPORATION =           0.0000           EVAPORATION =           0.0000
         EXT-OUTFLOW =      108811.6859           EXT-OUTFLOW =        1952.7195

           TOTAL OUT =      108811.6859             TOTAL OUT =        1952.7195

            IN - OUT =           0.0000              IN - OUT =       2.2737E-13

 PERCENT DISCREPANCY =           0.00     PERCENT DISCREPANCY =           0.00



  VOLUME BUDGET FOR ENTIRE MODEL AT END OF TIME STEP    1, STRESS PERIOD   3
  ---------------------------------------------------------------------------------------------------

     CUMULATIVE VOLUME      L**3       RATES FOR THIS TIME STEP      L**3/T          PACKAGE NAME    
     ------------------                 ------------------------                     ----------------

           IN:                                      IN:
           ---                                      ---
              STO-SS =           0.0000                STO-SS =           0.0000     STORAGE         
              STO-SY =           0.0000                STO-SY =           0.0000     STORAGE         
                 WEL =           0.0000                   WEL =           0.0000     WEL-1           
                 GHB =           0.0000                   GHB =           0.0000     GHB-1           
                 RCH =      250947.4688                   RCH =        4277.0102     RCH-1           
                 SFR =           0.0000                   SFR =           0.0000     SFR_1           

            TOTAL IN =      250947.4688              TOTAL IN =        4277.0102

          OUT:                                     OUT:
          ----                                     ----
              STO-SS =         576.2973                STO-SS =           9.0911     STORAGE         
              STO-SY =       89482.8703                STO-SY =        1417.2489     STORAGE         
                 WEL =       24825.0730                   WEL =         417.5474     WEL-1           
                 GHB =       35798.4099                   GHB =         632.9828     GHB-1           
                 RCH =           0.0000                   RCH =           0.0000     RCH-1           
                 SFR =       99842.1335                   SFR =        1796.9334     SFR_1           

           TOTAL OUT =      250524.7841             TOTAL OUT =        4273.8035

            IN - OUT =         422.6847              IN - OUT =           3.2067

 PERCENT DISCREPANCY =           0.17     PERCENT DISCREPANCY =           0.08




         TIME SUMMARY AT END OF TIME STEP    1 IN STRESS PERIOD    3
                    SECONDS     MINUTES      HOURS       DAYS        YEARS
                    -----------------------------------------------------------
   TIME STEP LENGTH 2.50560E+06  41760.      696.00      29.000     7.93977E-02
 STRESS PERIOD TIME 2.50560E+06  41760.      696.00      29.000     7.93977E-02
         TOTAL TIME 5.27040E+06  87840.      1464.0      61.000     0.16701    

 OUTPUT CONTROL FOR STRESS PERIOD 4 IS REPEATED USING SETTINGS FROM A PREVIOUS STRESS PERIOD.


 STRESS PERIOD 4 IS TRANSIENT


 OPENED freyberg6.wel_stress_period_data_4.txt
 FILE TYPE:OPEN/CLOSE   UNIT 1064   STATUS:OLD                 
 FORMAT:FORMATTED              ACCESS:SEQUENTIAL          
 ACTION:READ                


 WEL NO.  LAYER    ROW    COL     STRESS RATE         
 -----------------------------------------------------
      1      3     10     17      -107.2    
      2      3     12     14      -107.2    
      3      3     21     15      -107.2    
      4      3     27     11      -107.2    
      5      3     30      7      -107.2    
      6      3     35     13      -107.2    

 REUSING GHBS FROM LAST STRESS PERIOD

 OPENED freyberg6.rch_recharge_4.txt
 FILE TYPE:OPEN/CLOSE   UNIT 1065   STATUS:OLD                 
 FORMAT:FORMATTED              ACCESS:SEQUENTIAL          
 ACTION:READ                


 OPENED freyberg6.sfr_perioddata_4.txt
 FILE TYPE:OPEN/CLOSE   UNIT 1066   STATUS:OLD                 
 FORMAT:FORMATTED              ACCESS:SEQUENTIAL          
 ACTION:READ                


 READING SFR DATA FOR PERIOD      4

        REACH KEYWORD AND DATA
   ------------------------------------------------------------------------------
            1 INFLOW  156.345764160156

 END OF SFR DATA FOR PERIOD      4

 UBDSV1 SAVING     FLOW-JA-FACE ON UNIT   1049 AT TIME STEP      1, STRESS PERIOD      4
 UBDSV06 SAVING              WEL IN MODEL FREYBERG6        PACKAGE FREYBERG6       CONNECTED TO MODEL FREYBERG6        PACKAGE WEL-1            ON UNIT   1049 AT TIME STEP      1, STRESS PERIOD      4

              WEL (WEL-1)   PERIOD 4   STEP 1
 BOUNDARY        1  CELL            (3,10,17)   RATE    -107.152    
 BOUNDARY        2  CELL            (3,12,14)   RATE    -107.152    
 BOUNDARY        3  CELL            (3,21,15)   RATE    -107.152    
 BOUNDARY        4  CELL            (3,27,11)   RATE    -107.152    
 BOUNDARY        5  CELL             (3,30,7)   RATE    -107.152    
 BOUNDARY        6  CELL            (3,35,13)   RATE    -107.152    

 UBDSV06 SAVING              GHB IN MODEL FREYBERG6        PACKAGE FREYBERG6       CONNECTED TO MODEL FREYBERG6        PACKAGE GHB-1            ON UNIT   1049 AT TIME STEP      1, STRESS PERIOD      4

              GHB (GHB-1)   PERIOD 4   STEP 1
 BOUNDARY        1  CELL             (1,40,6)   RATE    -22.3747    
 BOUNDARY        2  CELL             (1,40,7)   RATE    -22.1858    
 BOUNDARY        3  CELL             (1,40,8)   RATE    -21.8762    
 BOUNDARY        4  CELL             (1,40,9)   RATE    -21.5189    
 BOUNDARY        5  CELL            (1,40,10)   RATE    -21.1710    
 BOUNDARY        6  CELL            (1,40,11)   RATE    -20.8566    
 BOUNDARY        7  CELL            (1,40,12)   RATE    -20.5990    
 BOUNDARY        8  CELL            (1,40,13)   RATE    -20.4381    
 BOUNDARY        9  CELL            (1,40,14)   RATE    -20.4678    
 BOUNDARY       10  CELL            (1,40,15)   RATE    -20.8558    
 BOUNDARY       11  CELL             (2,40,6)   RATE    -23.1975    
 BOUNDARY       12  CELL             (2,40,7)   RATE    -22.9993    
 BOUNDARY       13  CELL             (2,40,8)   RATE    -22.6743    
 BOUNDARY       14  CELL             (2,40,9)   RATE    -22.2991    
 BOUNDARY       15  CELL            (2,40,10)   RATE    -21.9338    
 BOUNDARY       16  CELL            (2,40,11)   RATE    -21.6036    
 BOUNDARY       17  CELL            (2,40,12)   RATE    -21.3334    
 BOUNDARY       18  CELL            (2,40,13)   RATE    -21.1644    
 BOUNDARY       19  CELL            (2,40,14)   RATE    -21.1960    
 BOUNDARY       20  CELL            (2,40,15)   RATE    -21.6025    
 BOUNDARY       21  CELL             (3,40,6)   RATE    -25.2418    
 BOUNDARY       22  CELL             (3,40,7)   RATE    -25.0258    
 BOUNDARY       23  CELL             (3,40,8)   RATE    -24.6702    
 BOUNDARY       24  CELL             (3,40,9)   RATE    -24.2593    
 BOUNDARY       25  CELL            (3,40,10)   RATE    -23.8630    
 BOUNDARY       26  CELL            (3,40,11)   RATE    -23.5052    
 BOUNDARY       27  CELL            (3,40,12)   RATE    -23.2129    
 BOUNDARY       28  CELL            (3,40,13)   RATE    -23.0272    
 BOUNDARY       29  CELL            (3,40,14)   RATE    -23.0618    
 BOUNDARY       30  CELL            (3,40,15)   RATE    -23.5088    

 UBDSV06 SAVING              RCH IN MODEL FREYBERG6        PACKAGE FREYBERG6       CONNECTED TO MODEL FREYBERG6        PACKAGE RCH-1            ON UNIT   1049 AT TIME STEP      1, STRESS PERIOD      4
[...]
              STO-SY =      334160.0458                STO-SY =         464.4737     STORAGE         
                 WEL =      750454.8042                   WEL =        1205.1421     WEL-1           
                 GHB =      292072.4966                   GHB =         260.9438     GHB-1           
                 RCH =           0.0000                   RCH =           0.0000     RCH-1           
                 SFR =      760903.9665                   SFR =         504.1182     SFR_1           

           TOTAL OUT =     2139735.4439             TOTAL OUT =        2437.7084

            IN - OUT =        -898.0244              IN - OUT =           4.8871

 PERCENT DISCREPANCY =          -0.04     PERCENT DISCREPANCY =           0.20




         TIME SUMMARY AT END OF TIME STEP    1 IN STRESS PERIOD   23
                    SECONDS     MINUTES      HOURS       DAYS        YEARS
                    -----------------------------------------------------------
   TIME STEP LENGTH 2.67840E+06  44640.      744.00      31.000     8.48734E-02
 STRESS PERIOD TIME 2.67840E+06  44640.      744.00      31.000     8.48734E-02
         TOTAL TIME 5.79744E+07 9.66240E+05  16104.      671.00      1.8371    

 OUTPUT CONTROL FOR STRESS PERIOD 24 IS REPEATED USING SETTINGS FROM A PREVIOUS STRESS PERIOD.


 STRESS PERIOD 24 IS TRANSIENT


 OPENED freyberg6.wel_stress_period_data_24.txt
 FILE TYPE:OPEN/CLOSE   UNIT 1124   STATUS:OLD                 
 FORMAT:FORMATTED              ACCESS:SEQUENTIAL          
 ACTION:READ                


 WEL NO.  LAYER    ROW    COL     STRESS RATE         
 -----------------------------------------------------
      1      3     10     17      -139.5    
      2      3     12     14      -139.5    
      3      3     21     15      -139.5    
      4      3     27     11      -139.5    
      5      3     30      7      -139.5    
      6      3     35     13      -139.5    

 REUSING GHBS FROM LAST STRESS PERIOD

 OPENED freyberg6.rch_recharge_24.txt
 FILE TYPE:OPEN/CLOSE   UNIT 1125   STATUS:OLD                 
 FORMAT:FORMATTED              ACCESS:SEQUENTIAL          
 ACTION:READ                


 OPENED freyberg6.sfr_perioddata_24.txt
 FILE TYPE:OPEN/CLOSE   UNIT 1126   STATUS:OLD                 
 FORMAT:FORMATTED              ACCESS:SEQUENTIAL          
 ACTION:READ                


 READING SFR DATA FOR PERIOD     24

        REACH KEYWORD AND DATA
   ------------------------------------------------------------------------------
            1 INFLOW  128.485382080078

 END OF SFR DATA FOR PERIOD     24

 UBDSV1 SAVING     FLOW-JA-FACE ON UNIT   1049 AT TIME STEP      1, STRESS PERIOD     24
 UBDSV06 SAVING              WEL IN MODEL FREYBERG6        PACKAGE FREYBERG6       CONNECTED TO MODEL FREYBERG6        PACKAGE WEL-1            ON UNIT   1049 AT TIME STEP      1, STRESS PERIOD     24

              WEL (WEL-1)   PERIOD 24   STEP 1
 BOUNDARY        1  CELL            (3,10,17)   RATE    -139.537    
 BOUNDARY        2  CELL            (3,12,14)   RATE    -139.537    
 BOUNDARY        3  CELL            (3,21,15)   RATE    -139.537    
 BOUNDARY        4  CELL            (3,27,11)   RATE    -139.537    
 BOUNDARY        5  CELL             (3,30,7)   RATE    -139.537    
 BOUNDARY        6  CELL            (3,35,13)   RATE    -139.537    

 UBDSV06 SAVING              GHB IN MODEL FREYBERG6        PACKAGE FREYBERG6       CONNECTED TO MODEL FREYBERG6        PACKAGE GHB-1            ON UNIT   1049 AT TIME STEP      1, STRESS PERIOD     24

              GHB (GHB-1)   PERIOD 24   STEP 1
 BOUNDARY        1  CELL             (1,40,6)   RATE    -11.9531    
 BOUNDARY        2  CELL             (1,40,7)   RATE    -11.8402    
 BOUNDARY        3  CELL             (1,40,8)   RATE    -11.6533    
 BOUNDARY        4  CELL             (1,40,9)   RATE    -11.4357    
 BOUNDARY        5  CELL            (1,40,10)   RATE    -11.2251    
 BOUNDARY        6  CELL            (1,40,11)   RATE    -11.0450    
 BOUNDARY        7  CELL            (1,40,12)   RATE    -10.9201    
 BOUNDARY        8  CELL            (1,40,13)   RATE    -10.8827    
 BOUNDARY        9  CELL            (1,40,14)   RATE    -10.9868    
 BOUNDARY       10  CELL            (1,40,15)   RATE    -11.3096    
 BOUNDARY       11  CELL             (2,40,6)   RATE    -12.3465    
 BOUNDARY       12  CELL             (2,40,7)   RATE    -12.2281    
 BOUNDARY       13  CELL             (2,40,8)   RATE    -12.0323    
 BOUNDARY       14  CELL             (2,40,9)   RATE    -11.8044    
 BOUNDARY       15  CELL            (2,40,10)   RATE    -11.5840    
 BOUNDARY       16  CELL            (2,40,11)   RATE    -11.3956    
 BOUNDARY       17  CELL            (2,40,12)   RATE    -11.2648    
 BOUNDARY       18  CELL            (2,40,13)   RATE    -11.2259    
 BOUNDARY       19  CELL            (2,40,14)   RATE    -11.3351    
 BOUNDARY       20  CELL            (2,40,15)   RATE    -11.6732    
 BOUNDARY       21  CELL             (3,40,6)   RATE    -13.3886    
 BOUNDARY       22  CELL             (3,40,7)   RATE    -13.2597    
 BOUNDARY       23  CELL             (3,40,8)   RATE    -13.0456    
 BOUNDARY       24  CELL             (3,40,9)   RATE    -12.7963    
 BOUNDARY       25  CELL            (3,40,10)   RATE    -12.5574    
 BOUNDARY       26  CELL            (3,40,11)   RATE    -12.3533    
 BOUNDARY       27  CELL            (3,40,12)   RATE    -12.2124    
 BOUNDARY       28  CELL            (3,40,13)   RATE    -12.1696    
 BOUNDARY       29  CELL            (3,40,14)   RATE    -12.2898    
 BOUNDARY       30  CELL            (3,40,15)   RATE    -12.6608    

 UBDSV06 SAVING              RCH IN MODEL FREYBERG6        PACKAGE FREYBERG6       CONNECTED TO MODEL FREYBERG6        PACKAGE RCH-1            ON UNIT   1049 AT TIME STEP      1, STRESS PERIOD     24
 UBDSV06 SAVING              SFR IN MODEL FREYBERG6        PACKAGE FREYBERG6       CONNECTED TO MODEL FREYBERG6        PACKAGE SFR_1            ON UNIT   1049 AT TIME STEP      1, STRESS PERIOD     24

 HEAD WILL BE SAVED ON UNIT 1050 AT END OF TIME STEP    1, STRESS PERIOD   24


  SFR_1 BUDGET FOR ENTIRE MODEL AT END OF TIME STEP    1, STRESS PERIOD  24
  ------------------------------------------------------------------------------

     CUMULATIVE SFR_1      L**3       RATES FOR THIS TIME STEP      L**3/T
     ------------------                 ------------------------

           IN:                                      IN:
           ---                                      ---
          EXT-INFLOW =       69870.5673            EXT-INFLOW =         128.4854
            RAINFALL =           0.0000              RAINFALL =           0.0000
              RUNOFF =           0.0000                RUNOFF =           0.0000
                 GWF =      785854.4637                   GWF =         801.4516
         EVAPORATION =           0.0000           EVAPORATION =           0.0000
         EXT-OUTFLOW =           0.0000           EXT-OUTFLOW =           0.0000

            TOTAL IN =      855725.0310              TOTAL IN =         929.9370

          OUT:                                     OUT:
          ----                                     ----
          EXT-INFLOW =           0.0000            EXT-INFLOW =           0.0000
            RAINFALL =           0.0000              RAINFALL =           0.0000
              RUNOFF =           0.0000                RUNOFF =           0.0000
                 GWF =           0.0000                   GWF =           0.0000
         EVAPORATION =           0.0000           EVAPORATION =           0.0000
         EXT-OUTFLOW =      855725.0310           EXT-OUTFLOW =         929.9370

           TOTAL OUT =      855725.0310             TOTAL OUT =         929.9370

            IN - OUT =           0.0000              IN - OUT =       1.1369E-13

 PERCENT DISCREPANCY =           0.00     PERCENT DISCREPANCY =           0.00



  VOLUME BUDGET FOR ENTIRE MODEL AT END OF TIME STEP    1, STRESS PERIOD  24
  ---------------------------------------------------------------------------------------------------

     CUMULATIVE VOLUME      L**3       RATES FOR THIS TIME STEP      L**3/T          PACKAGE NAME    
     ------------------                 ------------------------                     ----------------

           IN:                                      IN:
           ---                                      ---
              STO-SS =        2720.1549                STO-SS =           0.0000     STORAGE         
              STO-SY =      424697.1932                STO-SY =           0.0000     STORAGE         
                 WEL =           0.0000                   WEL =           0.0000     WEL-1           
                 GHB =           0.0000                   GHB =           0.0000     GHB-1           
                 RCH =     1811346.9541                   RCH =        3330.8961     RCH-1           
                 SFR =           0.0000                   SFR =           0.0000     SFR_1           

            TOTAL IN =     2238764.3022              TOTAL IN =        3330.8961

          OUT:                                     OUT:
          ----                                     ----
              STO-SS =        2395.1771                STO-SS =           8.3682     STORAGE         
              STO-SY =      373252.7777                STO-SY =        1303.0911     STORAGE         
                 WEL =      775571.5146                   WEL =         837.2237     WEL-1           
                 GHB =      302778.7478                   GHB =         356.8750     GHB-1           
                 RCH =           0.0000                   RCH =           0.0000     RCH-1           
                 SFR =      785381.9897                   SFR =         815.9341     SFR_1           

           TOTAL OUT =     2239380.2070             TOTAL OUT =        3321.4921

            IN - OUT =        -615.9048              IN - OUT =           9.4040

 PERCENT DISCREPANCY =          -0.03     PERCENT DISCREPANCY =           0.28




         TIME SUMMARY AT END OF TIME STEP    1 IN STRESS PERIOD   24
                    SECONDS     MINUTES      HOURS       DAYS        YEARS
                    -----------------------------------------------------------
   TIME STEP LENGTH 2.59200E+06  43200.      720.00      30.000     8.21355E-02
 STRESS PERIOD TIME 2.59200E+06  43200.      720.00      30.000     8.21355E-02
         TOTAL TIME 6.05664E+07 1.00944E+06  16824.      701.00      1.9192    

 OUTPUT CONTROL FOR STRESS PERIOD 25 IS REPEATED USING SETTINGS FROM A PREVIOUS STRESS PERIOD.


 STRESS PERIOD 25 IS TRANSIENT


 OPENED freyberg6.wel_stress_period_data_25.txt
 FILE TYPE:OPEN/CLOSE   UNIT 1127   STATUS:OLD                 
 FORMAT:FORMATTED              ACCESS:SEQUENTIAL          
 ACTION:READ                


 WEL NO.  LAYER    ROW    COL     STRESS RATE         
 -----------------------------------------------------
      1      3     10     17      -88.54    
      2      3     12     14      -88.54    
      3      3     21     15      -88.54    
      4      3     27     11      -88.54    
      5      3     30      7      -88.54    
      6      3     35     13      -88.54    

 REUSING GHBS FROM LAST STRESS PERIOD

 OPENED freyberg6.rch_recharge_25.txt
 FILE TYPE:OPEN/CLOSE   UNIT 1128   STATUS:OLD                 
 FORMAT:FORMATTED              ACCESS:SEQUENTIAL          
 ACTION:READ                


 OPENED freyberg6.sfr_perioddata_25.txt
 FILE TYPE:OPEN/CLOSE   UNIT 1129   STATUS:OLD                 
 FORMAT:FORMATTED              ACCESS:SEQUENTIAL          
 ACTION:READ                


 READING SFR DATA FOR PERIOD     25

        REACH KEYWORD AND DATA
   ------------------------------------------------------------------------------
            1 INFLOW  154.695617675781

 END OF SFR DATA FOR PERIOD     25

 UBDSV1 SAVING     FLOW-JA-FACE ON UNIT   1049 AT TIME STEP      1, STRESS PERIOD     25
 UBDSV06 SAVING              WEL IN MODEL FREYBERG6        PACKAGE FREYBERG6       CONNECTED TO MODEL FREYBERG6        PACKAGE WEL-1            ON UNIT   1049 AT TIME STEP      1, STRESS PERIOD     25

              WEL (WEL-1)   PERIOD 25   STEP 1
 BOUNDARY        1  CELL            (3,10,17)   RATE    -88.5429    
 BOUNDARY        2  CELL            (3,12,14)   RATE    -88.5429    
 BOUNDARY        3  CELL            (3,21,15)   RATE    -88.5429    
 BOUNDARY        4  CELL            (3,27,11)   RATE    -88.5429    
 BOUNDARY        5  CELL             (3,30,7)   RATE    -88.5429    
 BOUNDARY        6  CELL            (3,35,13)   RATE    -88.5429    

 UBDSV06 SAVING              GHB IN MODEL FREYBERG6        PACKAGE FREYBERG6       CONNECTED TO MODEL FREYBERG6        PACKAGE GHB-1            ON UNIT   1049 AT TIME STEP      1, STRESS PERIOD     25

              GHB (GHB-1)   PERIOD 25   STEP 1
 BOUNDARY        1  CELL             (1,40,6)   RATE    -15.7598    
 BOUNDARY        2  CELL             (1,40,7)   RATE    -15.6369    
 BOUNDARY        3  CELL             (1,40,8)   RATE    -15.4370    
 BOUNDARY        4  CELL             (1,40,9)   RATE    -15.2101    
 BOUNDARY        5  CELL            (1,40,10)   RATE    -14.9962    
 BOUNDARY        6  CELL            (1,40,11)   RATE    -14.8136    
 BOUNDARY        7  CELL            (1,40,12)   RATE    -14.6807    
 BOUNDARY        8  CELL            (1,40,13)   RATE    -14.6272    
 BOUNDARY        9  CELL            (1,40,14)   RATE    -14.7189    
 BOUNDARY       10  CELL            (1,40,15)   RATE    -15.0714    
 BOUNDARY       11  CELL             (2,40,6)   RATE    -16.3008    
 BOUNDARY       12  CELL             (2,40,7)   RATE    -16.1718    
 BOUNDARY       13  CELL             (2,40,8)   RATE    -15.9621    
 BOUNDARY       14  CELL             (2,40,9)   RATE    -15.7241    
 BOUNDARY       15  CELL            (2,40,10)   RATE    -15.4999    
 BOUNDARY       16  CELL            (2,40,11)   RATE    -15.3085    
 BOUNDARY       17  CELL            (2,40,12)   RATE    -15.1691    
 BOUNDARY       18  CELL            (2,40,13)   RATE    -15.1128    
 BOUNDARY       19  CELL            (2,40,14)   RATE    -15.2090    
 BOUNDARY       20  CELL            (2,40,15)   RATE    -15.5783    
 BOUNDARY       21  CELL             (3,40,6)   RATE    -17.6989    
 BOUNDARY       22  CELL             (3,40,7)   RATE    -17.5586    
 BOUNDARY       23  CELL             (3,40,8)   RATE    -17.3294    
 BOUNDARY       24  CELL             (3,40,9)   RATE    -17.0691    
 BOUNDARY       25  CELL            (3,40,10)   RATE    -16.8267    
 BOUNDARY       26  CELL            (3,40,11)   RATE    -16.6201    
 BOUNDARY       27  CELL            (3,40,12)   RATE    -16.4703    
 BOUNDARY       28  CELL            (3,40,13)   RATE    -16.4081    
 BOUNDARY       29  CELL            (3,40,14)   RATE    -16.5139    
 BOUNDARY       30  CELL            (3,40,15)   RATE    -16.9194    

 UBDSV06 SAVING              RCH IN MODEL FREYBERG6        PACKAGE FREYBERG6       CONNECTED TO MODEL FREYBERG6        PACKAGE RCH-1            ON UNIT   1049 AT TIME STEP      1, STRESS PERIOD     25
 UBDSV06 SAVING              SFR IN MODEL FREYBERG6        PACKAGE FREYBERG6       CONNECTED TO MODEL FREYBERG6        PACKAGE SFR_1            ON UNIT   1049 AT TIME STEP      1, STRESS PERIOD     25

 HEAD WILL BE SAVED ON UNIT 1050 AT END OF TIME STEP    1, STRESS PERIOD   25


  SFR_1 BUDGET FOR ENTIRE MODEL AT END OF TIME STEP    1, STRESS PERIOD  25
  ------------------------------------------------------------------------------

     CUMULATIVE SFR_1      L**3       RATES FOR THIS TIME STEP      L**3/T
     ------------------                 ------------------------

           IN:                                      IN:
           ---                                      ---
          EXT-INFLOW =       74666.1315            EXT-INFLOW =         154.6956
            RAINFALL =           0.0000              RAINFALL =           0.0000
              RUNOFF =           0.0000                RUNOFF =           0.0000
                 GWF =      823325.8582                   GWF =        1208.7547
         EVAPORATION =           0.0000           EVAPORATION =           0.0000
         EXT-OUTFLOW =           0.0000           EXT-OUTFLOW =           0.0000

            TOTAL IN =      897991.9897              TOTAL IN =        1363.4503

          OUT:                                     OUT:
          ----                                     ----
          EXT-INFLOW =           0.0000            EXT-INFLOW =           0.0000
            RAINFALL =           0.0000              RAINFALL =           0.0000
              RUNOFF =           0.0000                RUNOFF =           0.0000
                 GWF =           0.0000                   GWF =           0.0000
         EVAPORATION =           0.0000           EVAPORATION =           0.0000
         EXT-OUTFLOW =      897991.9897           EXT-OUTFLOW =        1363.4503

           TOTAL OUT =      897991.9897             TOTAL OUT =        1363.4503

            IN - OUT =           0.0000              IN - OUT =       2.2737E-13

 PERCENT DISCREPANCY =           0.00     PERCENT DISCREPANCY =           0.00



  VOLUME BUDGET FOR ENTIRE MODEL AT END OF TIME STEP    1, STRESS PERIOD  25
  ---------------------------------------------------------------------------------------------------

     CUMULATIVE VOLUME      L**3       RATES FOR THIS TIME STEP      L**3/T          PACKAGE NAME    
     ------------------                 ------------------------                     ----------------

           IN:                                      IN:
           ---                                      ---
              STO-SS =        2720.1549                STO-SS =           0.0000     STORAGE         
              STO-SY =      424697.1932                STO-SY =           0.0000     STORAGE         
                 WEL =           0.0000                   WEL =           0.0000     WEL-1           
                 GHB =           0.0000                   GHB =           0.0000     GHB-1           
                 RCH =     1935668.6946                   RCH =        4010.3787     RCH-1           
                 SFR =           0.0000                   SFR =           0.0000     SFR_1           

            TOTAL IN =     2363086.0427              TOTAL IN =        4010.3787

          OUT:                                     OUT:
          ----                                     ----
              STO-SS =        2743.8368                STO-SS =          11.2471     STORAGE         
              STO-SY =      427657.6372                STO-SY =        1754.9955     STORAGE         
                 WEL =      792040.4968                   WEL =         531.2575     WEL-1           
                 GHB =      317547.2394                   GHB =         476.4030     GHB-1           
                 RCH =           0.0000                   RCH =           0.0000     RCH-1           
                 SFR =      823355.2260                   SFR =        1224.9431     SFR_1           

           TOTAL OUT =     2363344.4362             TOTAL OUT =        3998.8461

            IN - OUT =        -258.3935              IN - OUT =          11.5326

 PERCENT DISCREPANCY =          -0.01     PERCENT DISCREPANCY =           0.29




         TIME SUMMARY AT END OF TIME STEP    1 IN STRESS PERIOD   25
                    SECONDS     MINUTES      HOURS       DAYS        YEARS
                    -----------------------------------------------------------
   TIME STEP LENGTH 2.67840E+06  44640.      744.00      31.000     8.48734E-02
 STRESS PERIOD TIME 2.67840E+06  44640.      744.00      31.000     8.48734E-02
         TOTAL TIME 6.32448E+07 1.05408E+06  17568.      732.00      2.0041    
