                                   MODFLOW 6
                U.S. GEOLOGICAL SURVEY MODULAR HYDROLOGIC MODEL
                            VERSION 6.1.0 12/12/2019

   MODFLOW 6 compiled Dec 13 2019 12:29:49 with IFORT compiler (ver. 19.0.5)

This software has been approved for release by the U.S. Geological 
Survey (USGS). Although the software has been subjected to rigorous 
review, the USGS reserves the right to update the software as needed 
pursuant to further analysis and review. No warranty, expressed or 
implied, is made by the USGS or the U.S. Government as to the 
functionality of the software and related material nor shall the 
fact of release constitute any such warranty. Furthermore, the 
software is released on condition that neither the USGS nor the U.S. 
Government shall be held liable for any damages resulting from its 
authorized or unauthorized use. Also refer to the USGS Water 
Resources Software User Rights Notice for complete use, copyright, 
and distribution information.


System command used to initiate simulation:
mf6

MODFLOW was compiled using uniform precision.
Real Variables
  PRECISION: 15
  KIND: 8
  TINY (smallest non-zero value):    2.225074-308
  HUGE (largest value):    1.797693+308
Integer Variables
  KIND: 4
  HUGE (largest value): 2147483647
  BIT_SIZE: 32
 

 OPENED mfsim.nam
 FILE TYPE:NAM   UNIT 1001   STATUS:OLD                 
 FORMAT:FORMATTED              ACCESS:SEQUENTIAL          
 ACTION:READ                


 READING SIMULATION OPTIONS
    SIMULATION WILL CONTINUE EVEN IF THERE IS NONCONVERGENCE.
 END OF SIMULATION OPTIONS

 READING SIMULATION TIMING

 OPENED freyberg6.tdis
 FILE TYPE:TDIS   UNIT 1002   STATUS:OLD                 
 FORMAT:FORMATTED              ACCESS:SEQUENTIAL          
 ACTION:READ                


 TDIS -- TEMPORAL DISCRETIZATION PACKAGE,
 VERSION 1 : 11/13/2014 - INPUT READ FROM UNIT 1002
 PROCESSING TDIS OPTIONS
    SIMULATION TIME UNIT IS DAYS
 END OF TDIS OPTIONS
 PROCESSING TDIS DIMENSIONS
   25 STRESS PERIOD(S) IN SIMULATION
 END OF TDIS DIMENSIONS
 PROCESSING TDIS PERIODDATA


 STRESS PERIOD     LENGTH       TIME STEPS     MULTIPLIER FOR DELT
 ----------------------------------------------------------------------------
        1         1.000000          1                    1.000
        2         31.00000          1                    1.000
        3         29.00000          1                    1.000
        4         31.00000          1                    1.000
        5         30.00000          1                    1.000
        6         31.00000          1                    1.000
        7         30.00000          1                    1.000
        8         31.00000          1                    1.000
        9         31.00000          1                    1.000
       10         30.00000          1                    1.000
       11         31.00000          1                    1.000
       12         30.00000          1                    1.000
       13         31.00000          1                    1.000
       14         31.00000          1                    1.000
       15         28.00000          1                    1.000
       16         31.00000          1                    1.000
       17         30.00000          1                    1.000
       18         31.00000          1                    1.000
       19         30.00000          1                    1.000
       20         31.00000          1                    1.000
       21         31.00000          1                    1.000
       22         30.00000          1                    1.000
       23         31.00000          1                    1.000
       24         30.00000          1                    1.000
       25         31.00000          1                    1.000
 END OF TDIS PERIODDATA
 END OF SIMULATION TIMING

 READING SIMULATION MODELS
    GWF6 model FREYBERG6 will be created as model 1
 END OF SIMULATION MODELS

 READING SIMULATION EXCHANGES
 END OF SIMULATION EXCHANGES

 READING SOLUTIONGROUP

 Creating solution: SLN_1           

 OPENED freyberg6.ims
 FILE TYPE:IMS   UNIT 1015   STATUS:OLD                 
 FORMAT:FORMATTED              ACCESS:SEQUENTIAL          
 ACTION:READ                

 END OF SIMULATION SOLUTIONGROUP

 IMS -- ITERATIVE MODEL SOLUTION PACKAGE, VERSION 6, 4/28/2017
         INPUT READ FROM UNIT 1015

 PROCESSING IMS OPTIONS
 SIMPLE OPTION:
 DEFAULT SOLVER INPUT VALUES FOR FAST SOLUTIONS
 END OF IMS OPTIONS

 PROCESSING IMS NONLINEAR
 END OF IMS NONLINEAR DATA
 **UNDER-RELAXATION WILL BE USED***
 
 ***IMS LINEAR SOLVER WILL BE USED***

 IMSLINEAR -- UNSTRUCTURED LINEAR SOLUTION PACKAGE, VERSION 8, 04/28/2017

 PROCESSING LINEAR DATA
 END OF LINEAR DATA
 
 OUTER ITERATION CONVERGENCE CRITERION     (HCLOSE) =    0.100000E-01
 OUTER ITERATION BOUNDARY FLOW RESIDUAL (RCLOSEBND) =    0.100000E+00
 MAXIMUM NUMBER OF OUTER ITERATIONS        (MXITER) =       100
 SOLVER PRINTOUT INDEX                     (IPRIMS) =         1
 NONLINEAR ITERATION METHOD            (NONLINMETH) =         3
 LINEAR SOLUTION METHOD                   (LINMETH) =         1
 UNDER-RELAXATION WEIGHT REDUCTION FACTOR   (THETA) =    0.850000E+00
 UNDER-RELAXATION WEIGHT INCREASE INCREMENT (KAPPA) =    0.100000E-04
 UNDER-RELAXATION PREVIOUS HISTORY FACTOR   (GAMMA) =    0.000000E+00
 UNDER-RELAXATIONMOMENTUM TERM          (AMOMENTUM) =    0.100000E+00
    MAXIMUM NUMBER OF BACKTRACKS         (NUMTRACK) =        50
 BACKTRACKING TOLERANCE FACTOR               (BTOL) =    0.110000E+01
 BACKTRACKING REDUCTION FACTOR             (BREDUC) =    0.700000E+00
 BACKTRACKING RESIDUAL LIMIT              (RES_LIM) =    0.100000E+03

       SOLUTION BY THE BICONJUGATE-GRADIENT STABILIZED METHOD
 ------------------------------------------------------------------
 MAXIMUM OF    100 CALLS OF SOLUTION ROUTINE
 MAXIMUM OF     50 INTERNAL ITERATIONS PER CALL TO SOLUTION ROUTINE
 LINEAR ACCELERATION METHOD            = BCGS      
 MATRIX PRECONDITIONING TYPE           = INCOMPLETE LUT      
 MATRIX SCALING APPROACH               = NO SCALING          
 MATRIX REORDERING APPROACH            = RCM ORDERING             
 NUMBER OF ORTHOGONALIZATIONS          =        2
 HEAD CHANGE CRITERION FOR CLOSURE     =    0.10000E-03
 RESIDUAL CHANGE CRITERION FOR CLOSURE =    0.10000E+00
 RESIDUAL CONVERGENCE OPTION           =        0
 RESIDUAL CONVERGENCE NORM             = INFINITY NORM   
 RELAXATION FACTOR                     =    0.00000E+00
 NUMBER OF LEVELS                      =              1
 DROP TOLERANCE                        =    0.10000E-02


1
                            STRESS PERIOD NO.    1, LENGTH =   1.000000    
                            -----------------------------------------------

                              NUMBER OF TIME STEPS =     1

                               MULTIPLIER FOR DELT =     1.000

                            INITIAL TIME STEP SIZE =   1.000000    



 PSEUDO-TRANSIENT CONTINUATION WILL BE APPLIED TO MODEL 1 ("FREYBERG6") DURING THIS TIME STEP


 OUTER ITERATION SUMMARY
 -------------------------------------------------------------------------------------------------------------------------------------------
                       OUTER     INNER BACKTRACK BACKTRACK        INCOMING        OUTGOING         MAXIMUM                    MAXIMUM CHANGE
                   ITERATION ITERATION      FLAG    NUMBER        RESIDUAL        RESIDUAL          CHANGE                    MODEL-(CELLID)
 -------------------------------------------------------------------------------------------------------------------------------------------
 Backtracking              1                   0         0    2.237762E+06    2.237762E+06
 Linear Solver             1        22                                                         780.782                       1_GWF-(3,40,16)
 Under-relaxation          1                                                                   780.782                       1_GWF-(3,40,16)
 Backtracking              2                   0         0     191317.         191317.    
 Linear Solver             2        50                                                         480.253                       1_GWF-(1,40,16)
 Under-relaxation          2                                                                   480.253                       1_GWF-(1,40,16)
 Backtracking              3                   0         0     47255.8         47255.8    
 Linear Solver             3        50                                                         27.2333                       1_GWF-(1,40,16)
 Under-relaxation          3                                                                   27.2333                       1_GWF-(1,40,16)
 Backtracking              4                   0         0     11559.0         11559.0    
 Linear Solver             4        50                                                         4.23458                       1_GWF-(3,39,16)
 Under-relaxation          4                                                                   3.59948                       1_GWF-(3,39,16)
 Backtracking              5                   0         0     2206.46         2206.46    
 Linear Solver             5        50                                                       -0.837428                        1_GWF-(1,11,1)
 Under-relaxation          5                                                                 -0.921171                        1_GWF-(1,11,1)
 Backtracking              6                   0         0     804.760         804.760    
 Linear Solver             6        50                                                       -0.127066                        1_GWF-(1,1,20)
 Under-relaxation          6                                                                 -0.104516                        1_GWF-(1,1,20)
 Backtracking              7                   0         0     233.104         233.104    
 Linear Solver             7        45                                                       -4.456453E-02                   1_GWF-(1,28,11)
 Under-relaxation          7                                                                 -3.182586E-02                   1_GWF-(1,28,11)
 Backtracking              8                   0         0     80.4824         80.4824    
 Linear Solver             8        22                                                       -1.239662E-02                   1_GWF-(1,28,11)
 Under-relaxation          8                                                                 -8.853201E-03                   1_GWF-(1,28,11)
 Backtracking              9                   0         0     21.9333         21.9333    
 Linear Solver             9        10                                                       -3.333383E-03                   1_GWF-(1,28,11)

 9 CALLS TO NUMERICAL SOLUTION IN TIME STEP 1 STRESS PERIOD 1
 349 TOTAL ITERATIONS
1
                            STRESS PERIOD NO.    2, LENGTH =   31.00000    
                            -----------------------------------------------

                              NUMBER OF TIME STEPS =     1

                               MULTIPLIER FOR DELT =     1.000

                            INITIAL TIME STEP SIZE =   31.00000    


 OUTER ITERATION SUMMARY
 -------------------------------------------------------------------------------------------------------------------------------------------
                       OUTER     INNER BACKTRACK BACKTRACK        INCOMING        OUTGOING         MAXIMUM                    MAXIMUM CHANGE
                   ITERATION ITERATION      FLAG    NUMBER        RESIDUAL        RESIDUAL          CHANGE                    MODEL-(CELLID)
 -------------------------------------------------------------------------------------------------------------------------------------------
 Backtracking              1                   0         0     280.195         280.195    
 Linear Solver             1        33                                                        0.196536                        1_GWF-(3,30,7)
 Under-relaxation          1                                                                  0.196536                        1_GWF-(3,30,7)
 Backtracking              2                   0         0     6.58328         6.58328    
 Linear Solver             2        13                                                        4.685858E-03                   1_GWF-(1,39,16)

 2 CALLS TO NUMERICAL SOLUTION IN TIME STEP 1 STRESS PERIOD 2
 46 TOTAL ITERATIONS
1
                            STRESS PERIOD NO.    3, LENGTH =   29.00000    
                            -----------------------------------------------

                              NUMBER OF TIME STEPS =     1

                               MULTIPLIER FOR DELT =     1.000

                            INITIAL TIME STEP SIZE =   29.00000    


 OUTER ITERATION SUMMARY
 -------------------------------------------------------------------------------------------------------------------------------------------
                       OUTER     INNER BACKTRACK BACKTRACK        INCOMING        OUTGOING         MAXIMUM                    MAXIMUM CHANGE
                   ITERATION ITERATION      FLAG    NUMBER        RESIDUAL        RESIDUAL          CHANGE                    MODEL-(CELLID)
 -------------------------------------------------------------------------------------------------------------------------------------------
 Backtracking              1                   0         0     71.8959         71.8959    
 Linear Solver             1        23                                                        0.118545                        1_GWF-(1,26,1)
 Under-relaxation          1                                                                  0.118545                        1_GWF-(1,26,1)
 Backtracking              2                   0         0     4.56382         4.56382    
 Linear Solver             2        17                                                        2.939554E-03                   1_GWF-(1,40,16)

 2 CALLS TO NUMERICAL SOLUTION IN TIME STEP 1 STRESS PERIOD 3
 40 TOTAL ITERATIONS
1
                            STRESS PERIOD NO.    4, LENGTH =   31.00000    
                            -----------------------------------------------

                              NUMBER OF TIME STEPS =     1

                               MULTIPLIER FOR DELT =     1.000

                            INITIAL TIME STEP SIZE =   31.00000    


 OUTER ITERATION SUMMARY
 -------------------------------------------------------------------------------------------------------------------------------------------
                       OUTER     INNER BACKTRACK BACKTRACK        INCOMING        OUTGOING         MAXIMUM                    MAXIMUM CHANGE
                   ITERATION ITERATION      FLAG    NUMBER        RESIDUAL        RESIDUAL          CHANGE                    MODEL-(CELLID)
 -------------------------------------------------------------------------------------------------------------------------------------------
 Backtracking              1                   0         0     102.950         102.950    
 Linear Solver             1        22                                                        9.648520E-02                    1_GWF-(1,15,1)
 Under-relaxation          1                                                                  9.648520E-02                    1_GWF-(1,15,1)
 Backtracking              2                   0         0     2.34488         2.34488    
 Linear Solver             2        11                                                        3.389197E-03                   1_GWF-(3,15,13)

 2 CALLS TO NUMERICAL SOLUTION IN TIME STEP 1 STRESS PERIOD 4
 33 TOTAL ITERATIONS
1
                            STRESS PERIOD NO.    5, LENGTH =   30.00000    
                            -----------------------------------------------

                              NUMBER OF TIME STEPS =     1

                               MULTIPLIER FOR DELT =     1.000

                            INITIAL TIME STEP SIZE =   30.00000    


 OUTER ITERATION SUMMARY
 -------------------------------------------------------------------------------------------------------------------------------------------
                       OUTER     INNER BACKTRACK BACKTRACK        INCOMING        OUTGOING         MAXIMUM                    MAXIMUM CHANGE
                   ITERATION ITERATION      FLAG    NUMBER        RESIDUAL        RESIDUAL          CHANGE                    MODEL-(CELLID)
 -------------------------------------------------------------------------------------------------------------------------------------------
 Backtracking              1                   0         0     140.949         140.949    
 Linear Solver             1        27                                                       -5.079511E-02                   1_GWF-(3,10,17)
 Under-relaxation          1                                                                 -5.079511E-02                   1_GWF-(3,10,17)
 Backtracking              2                   0         0     1.01536         1.01536    
 Linear Solver             2         3                                                       -4.943485E-04                   1_GWF-(1,40,16)

 2 CALLS TO NUMERICAL SOLUTION IN TIME STEP 1 STRESS PERIOD 5
 30 TOTAL ITERATIONS
1
                            STRESS PERIOD NO.    6, LENGTH =   31.00000    
                            -----------------------------------------------

                              NUMBER OF TIME STEPS =     1

                               MULTIPLIER FOR DELT =     1.000

                            INITIAL TIME STEP SIZE =   31.00000    


 OUTER ITERATION SUMMARY
 -------------------------------------------------------------------------------------------------------------------------------------------
                       OUTER     INNER BACKTRACK BACKTRACK        INCOMING        OUTGOING         MAXIMUM                    MAXIMUM CHANGE
                   ITERATION ITERATION      FLAG    NUMBER        RESIDUAL        RESIDUAL          CHANGE                    MODEL-(CELLID)
 -------------------------------------------------------------------------------------------------------------------------------------------
 Backtracking              1                   0         0     152.941         152.941    
 Linear Solver             1        33                                                       -0.124692                        1_GWF-(3,30,7)
 Under-relaxation          1                                                                 -0.124692                        1_GWF-(3,30,7)
 Backtracking              2                   0         0     4.03912         4.03912    
 Linear Solver             2         8                                                       -2.648565E-03                   1_GWF-(1,40,16)

 2 CALLS TO NUMERICAL SOLUTION IN TIME STEP 1 STRESS PERIOD 6
 41 TOTAL ITERATIONS
1
                            STRESS PERIOD NO.    7, LENGTH =   30.00000    
                            -----------------------------------------------

                              NUMBER OF TIME STEPS =     1

                               MULTIPLIER FOR DELT =     1.000

                            INITIAL TIME STEP SIZE =   30.00000    


 OUTER ITERATION SUMMARY
 -------------------------------------------------------------------------------------------------------------------------------------------
                       OUTER     INNER BACKTRACK BACKTRACK        INCOMING        OUTGOING         MAXIMUM                    MAXIMUM CHANGE
                   ITERATION ITERATION      FLAG    NUMBER        RESIDUAL        RESIDUAL          CHANGE                    MODEL-(CELLID)
 -------------------------------------------------------------------------------------------------------------------------------------------
 Backtracking              1                   0         0     132.806         132.806    
 Linear Solver             1        29                                                       -0.162453                        1_GWF-(1,30,7)
 Under-relaxation          1                                                                 -0.162453                        1_GWF-(1,30,7)
 Backtracking              2                   0         0     6.29097         6.29097    
 Linear Solver             2        18                                                       -4.434639E-03                    1_GWF-(3,14,3)

 2 CALLS TO NUMERICAL SOLUTION IN TIME STEP 1 STRESS PERIOD 7
 47 TOTAL ITERATIONS
1
                            STRESS PERIOD NO.    8, LENGTH =   31.00000    
                            -----------------------------------------------

                              NUMBER OF TIME STEPS =     1

                               MULTIPLIER FOR DELT =     1.000

                            INITIAL TIME STEP SIZE =   31.00000    


 OUTER ITERATION SUMMARY
 -------------------------------------------------------------------------------------------------------------------------------------------
                       OUTER     INNER BACKTRACK BACKTRACK        INCOMING        OUTGOING         MAXIMUM                    MAXIMUM CHANGE
                   ITERATION ITERATION      FLAG    NUMBER        RESIDUAL        RESIDUAL          CHANGE                    MODEL-(CELLID)
 -------------------------------------------------------------------------------------------------------------------------------------------
 Backtracking              1                   0         0     99.2269         99.2269    
 Linear Solver             1        25                                                       -0.165767                        1_GWF-(1,30,7)
 Under-relaxation          1                                                                 -0.165767                        1_GWF-(1,30,7)
 Backtracking              2                   0         0     7.64245         7.64245    
 Linear Solver             2        19                                                       -5.061056E-03                   1_GWF-(1,40,16)

 2 CALLS TO NUMERICAL SOLUTION IN TIME STEP 1 STRESS PERIOD 8
 44 TOTAL ITERATIONS
1
                            STRESS PERIOD NO.    9, LENGTH =   31.00000    
                            -----------------------------------------------

                              NUMBER OF TIME STEPS =     1

                               MULTIPLIER FOR DELT =     1.000

                            INITIAL TIME STEP SIZE =   31.00000    


 OUTER ITERATION SUMMARY
 -------------------------------------------------------------------------------------------------------------------------------------------
                       OUTER     INNER BACKTRACK BACKTRACK        INCOMING        OUTGOING         MAXIMUM                    MAXIMUM CHANGE
                   ITERATION ITERATION      FLAG    NUMBER        RESIDUAL        RESIDUAL          CHANGE                    MODEL-(CELLID)
 -------------------------------------------------------------------------------------------------------------------------------------------
 Backtracking              1                   0         0     76.1493         76.1493    
 Linear Solver             1        23                                                       -0.155061                        1_GWF-(1,18,1)
 Under-relaxation          1                                                                 -0.155061                        1_GWF-(1,18,1)
 Backtracking              2                   0         0     7.03813         7.03813    
 Linear Solver             2        18                                                       -4.476335E-03                   1_GWF-(1,40,16)

 2 CALLS TO NUMERICAL SOLUTION IN TIME STEP 1 STRESS PERIOD 9
 41 TOTAL ITERATIONS
1
                            STRESS PERIOD NO.   10, LENGTH =   30.00000    
                            -----------------------------------------------

                              NUMBER OF TIME STEPS =     1

                               MULTIPLIER FOR DELT =     1.000

                            INITIAL TIME STEP SIZE =   30.00000    


 OUTER ITERATION SUMMARY
 -------------------------------------------------------------------------------------------------------------------------------------------
                       OUTER     INNER BACKTRACK BACKTRACK        INCOMING        OUTGOING         MAXIMUM                    MAXIMUM CHANGE
                   ITERATION ITERATION      FLAG    NUMBER        RESIDUAL        RESIDUAL          CHANGE                    MODEL-(CELLID)
 -------------------------------------------------------------------------------------------------------------------------------------------
 Backtracking              1                   0         0     60.6587         60.6587    
 Linear Solver             1        23                                                       -0.117073                        1_GWF-(1,15,1)
 Under-relaxation          1                                                                 -0.117073                        1_GWF-(1,15,1)
 Backtracking              2                   0         0     4.06507         4.06507    
 Linear Solver             2        13                                                       -3.446827E-03                   1_GWF-(1,37,16)

 2 CALLS TO NUMERICAL SOLUTION IN TIME STEP 1 STRESS PERIOD 10
 36 TOTAL ITERATIONS
1
                            STRESS PERIOD NO.   11, LENGTH =   31.00000    
                            -----------------------------------------------

                              NUMBER OF TIME STEPS =     1

                               MULTIPLIER FOR DELT =     1.000

                            INITIAL TIME STEP SIZE =   31.00000    


 OUTER ITERATION SUMMARY
 -------------------------------------------------------------------------------------------------------------------------------------------
                       OUTER     INNER BACKTRACK BACKTRACK        INCOMING        OUTGOING         MAXIMUM                    MAXIMUM CHANGE
                   ITERATION ITERATION      FLAG    NUMBER        RESIDUAL        RESIDUAL          CHANGE                    MODEL-(CELLID)
 -------------------------------------------------------------------------------------------------------------------------------------------
 Backtracking              1                   0         0     108.457         108.457    
 Linear Solver             1        27                                                       -5.190765E-02                    1_GWF-(1,14,1)
 Under-relaxation          1                                                                 -5.190765E-02                    1_GWF-(1,14,1)
 Backtracking              2                   0         0     1.18976         1.18976    
 Linear Solver             2         3                                                        5.733909E-04                   1_GWF-(1,40,16)

 2 CALLS TO NUMERICAL SOLUTION IN TIME STEP 1 STRESS PERIOD 11
 30 TOTAL ITERATIONS
1
                            STRESS PERIOD NO.   12, LENGTH =   30.00000    
                            -----------------------------------------------

                              NUMBER OF TIME STEPS =     1

                               MULTIPLIER FOR DELT =     1.000

                            INITIAL TIME STEP SIZE =   30.00000    


 OUTER ITERATION SUMMARY
 -------------------------------------------------------------------------------------------------------------------------------------------
                       OUTER     INNER BACKTRACK BACKTRACK        INCOMING        OUTGOING         MAXIMUM                    MAXIMUM CHANGE
                   ITERATION ITERATION      FLAG    NUMBER        RESIDUAL        RESIDUAL          CHANGE                    MODEL-(CELLID)
 -------------------------------------------------------------------------------------------------------------------------------------------
 Backtracking              1                   0         0     150.769         150.769    
 Linear Solver             1        28                                                        0.114512                        1_GWF-(3,30,7)
 Under-relaxation          1                                                                  0.114512                        1_GWF-(3,30,7)
 Backtracking              2                   0         0     5.62938         5.62938    
 Linear Solver             2        13                                                        4.340190E-03                   1_GWF-(1,39,16)

 2 CALLS TO NUMERICAL SOLUTION IN TIME STEP 1 STRESS PERIOD 12
 41 TOTAL ITERATIONS
1
                            STRESS PERIOD NO.   13, LENGTH =   31.00000    
                            -----------------------------------------------

                              NUMBER OF TIME STEPS =     1

                               MULTIPLIER FOR DELT =     1.000

                            INITIAL TIME STEP SIZE =   31.00000    


 OUTER ITERATION SUMMARY
 -------------------------------------------------------------------------------------------------------------------------------------------
                       OUTER     INNER BACKTRACK BACKTRACK        INCOMING        OUTGOING         MAXIMUM                    MAXIMUM CHANGE
                   ITERATION ITERATION      FLAG    NUMBER        RESIDUAL        RESIDUAL          CHANGE                    MODEL-(CELLID)
 -------------------------------------------------------------------------------------------------------------------------------------------
 Backtracking              1                   0         0     157.738         157.738    
 Linear Solver             1        31                                                        0.171681                        1_GWF-(3,30,7)
 Under-relaxation          1                                                                  0.171681                        1_GWF-(3,30,7)
 Backtracking              2                   0         0     7.61109         7.61109    
 Linear Solver             2        13                                                        5.537621E-03                   1_GWF-(1,39,16)

 2 CALLS TO NUMERICAL SOLUTION IN TIME STEP 1 STRESS PERIOD 13
 44 TOTAL ITERATIONS
1
                            STRESS PERIOD NO.   14, LENGTH =   31.00000    
                            -----------------------------------------------

                              NUMBER OF TIME STEPS =     1

                               MULTIPLIER FOR DELT =     1.000

                            INITIAL TIME STEP SIZE =   31.00000    


 OUTER ITERATION SUMMARY
 -------------------------------------------------------------------------------------------------------------------------------------------
                       OUTER     INNER BACKTRACK BACKTRACK        INCOMING        OUTGOING         MAXIMUM                    MAXIMUM CHANGE
                   ITERATION ITERATION      FLAG    NUMBER        RESIDUAL        RESIDUAL          CHANGE                    MODEL-(CELLID)
 -------------------------------------------------------------------------------------------------------------------------------------------
 Backtracking              1                   0         0     125.921         125.921    
 Linear Solver             1        33                                                        0.176829                        1_GWF-(1,30,7)
 Under-relaxation          1                                                                  0.176829                        1_GWF-(1,30,7)
 Backtracking              2                   0         0     7.08494         7.08494    
 Linear Solver             2        13                                                        4.985754E-03                   1_GWF-(1,39,16)

 2 CALLS TO NUMERICAL SOLUTION IN TIME STEP 1 STRESS PERIOD 14
 46 TOTAL ITERATIONS
1
                            STRESS PERIOD NO.   15, LENGTH =   28.00000    
                            -----------------------------------------------

                              NUMBER OF TIME STEPS =     1

                               MULTIPLIER FOR DELT =     1.000

                            INITIAL TIME STEP SIZE =   28.00000    


 OUTER ITERATION SUMMARY
 -------------------------------------------------------------------------------------------------------------------------------------------
                       OUTER     INNER BACKTRACK BACKTRACK        INCOMING        OUTGOING         MAXIMUM                    MAXIMUM CHANGE
                   ITERATION ITERATION      FLAG    NUMBER        RESIDUAL        RESIDUAL          CHANGE                    MODEL-(CELLID)
 -------------------------------------------------------------------------------------------------------------------------------------------
 Backtracking              1                   0         0     73.7269         73.7269    
 Linear Solver             1        23                                                        0.128503                        1_GWF-(1,24,1)
 Under-relaxation          1                                                                  0.128503                        1_GWF-(1,24,1)
 Backtracking              2                   0         0     4.65706         4.65706    
 Linear Solver             2        12                                                        2.935692E-03                   1_GWF-(1,40,16)

 2 CALLS TO NUMERICAL SOLUTION IN TIME STEP 1 STRESS PERIOD 15
 35 TOTAL ITERATIONS
1
                            STRESS PERIOD NO.   16, LENGTH =   31.00000    
                            -----------------------------------------------

                              NUMBER OF TIME STEPS =     1

                               MULTIPLIER FOR DELT =     1.000

                            INITIAL TIME STEP SIZE =   31.00000    


 OUTER ITERATION SUMMARY
 -------------------------------------------------------------------------------------------------------------------------------------------
                       OUTER     INNER BACKTRACK BACKTRACK        INCOMING        OUTGOING         MAXIMUM                    MAXIMUM CHANGE
                   ITERATION ITERATION      FLAG    NUMBER        RESIDUAL        RESIDUAL          CHANGE                    MODEL-(CELLID)
 -------------------------------------------------------------------------------------------------------------------------------------------
 Backtracking              1                   0         0     70.2563         70.2563    
 Linear Solver             1        25                                                        9.837295E-02                    1_GWF-(1,16,1)
 Under-relaxation          1                                                                  9.837295E-02                    1_GWF-(1,16,1)
 Backtracking              2                   0         0     2.06185         2.06185    
 Linear Solver             2        12                                                        1.964340E-03                   1_GWF-(1,36,16)

 2 CALLS TO NUMERICAL SOLUTION IN TIME STEP 1 STRESS PERIOD 16
 37 TOTAL ITERATIONS
1
                            STRESS PERIOD NO.   17, LENGTH =   30.00000    
                            -----------------------------------------------

                              NUMBER OF TIME STEPS =     1

                               MULTIPLIER FOR DELT =     1.000

                            INITIAL TIME STEP SIZE =   30.00000    


 OUTER ITERATION SUMMARY
 -------------------------------------------------------------------------------------------------------------------------------------------
                       OUTER     INNER BACKTRACK BACKTRACK        INCOMING        OUTGOING         MAXIMUM                    MAXIMUM CHANGE
                   ITERATION ITERATION      FLAG    NUMBER        RESIDUAL        RESIDUAL          CHANGE                    MODEL-(CELLID)
 -------------------------------------------------------------------------------------------------------------------------------------------
 Backtracking              1                   0         0     121.229         121.229    
 Linear Solver             1        27                                                       -5.167881E-02                   1_GWF-(3,10,17)
 Under-relaxation          1                                                                 -5.167881E-02                   1_GWF-(3,10,17)
 Backtracking              2                   0         0     1.38087         1.38087    
 Linear Solver             2         3                                                       -6.711200E-04                   1_GWF-(1,40,16)

 2 CALLS TO NUMERICAL SOLUTION IN TIME STEP 1 STRESS PERIOD 17
 30 TOTAL ITERATIONS
1
                            STRESS PERIOD NO.   18, LENGTH =   31.00000    
                            -----------------------------------------------

                              NUMBER OF TIME STEPS =     1

                               MULTIPLIER FOR DELT =     1.000

                            INITIAL TIME STEP SIZE =   31.00000    


 OUTER ITERATION SUMMARY
 -------------------------------------------------------------------------------------------------------------------------------------------
                       OUTER     INNER BACKTRACK BACKTRACK        INCOMING        OUTGOING         MAXIMUM                    MAXIMUM CHANGE
                   ITERATION ITERATION      FLAG    NUMBER        RESIDUAL        RESIDUAL          CHANGE                    MODEL-(CELLID)
 -------------------------------------------------------------------------------------------------------------------------------------------
 Backtracking              1                   0         0     155.786         155.786    
 Linear Solver             1        33                                                       -0.131574                        1_GWF-(3,30,7)
 Under-relaxation          1                                                                 -0.131574                        1_GWF-(3,30,7)
 Backtracking              2                   0         0     4.51331         4.51331    
 Linear Solver             2        13                                                       -3.365381E-03                   1_GWF-(1,39,16)

 2 CALLS TO NUMERICAL SOLUTION IN TIME STEP 1 STRESS PERIOD 18
 46 TOTAL ITERATIONS
1
                            STRESS PERIOD NO.   19, LENGTH =   30.00000    
                            -----------------------------------------------

                              NUMBER OF TIME STEPS =     1

                               MULTIPLIER FOR DELT =     1.000

                            INITIAL TIME STEP SIZE =   30.00000    


 OUTER ITERATION SUMMARY
 -------------------------------------------------------------------------------------------------------------------------------------------
                       OUTER     INNER BACKTRACK BACKTRACK        INCOMING        OUTGOING         MAXIMUM                    MAXIMUM CHANGE
                   ITERATION ITERATION      FLAG    NUMBER        RESIDUAL        RESIDUAL          CHANGE                    MODEL-(CELLID)
 -------------------------------------------------------------------------------------------------------------------------------------------
 Backtracking              1                   0         0     152.534         152.534    
 Linear Solver             1        37                                                       -0.171365                        1_GWF-(3,30,7)
 Under-relaxation          1                                                                 -0.171365                        1_GWF-(3,30,7)
 Backtracking              2                   0         0     6.68697         6.68697    
 Linear Solver             2        13                                                       -4.709341E-03                   1_GWF-(1,39,16)

 2 CALLS TO NUMERICAL SOLUTION IN TIME STEP 1 STRESS PERIOD 19
 50 TOTAL ITERATIONS
1
                            STRESS PERIOD NO.   20, LENGTH =   31.00000    
                            -----------------------------------------------

                              NUMBER OF TIME STEPS =     1

                               MULTIPLIER FOR DELT =     1.000

                            INITIAL TIME STEP SIZE =   31.00000    


 OUTER ITERATION SUMMARY
 -------------------------------------------------------------------------------------------------------------------------------------------
                       OUTER     INNER BACKTRACK BACKTRACK        INCOMING        OUTGOING         MAXIMUM                    MAXIMUM CHANGE
                   ITERATION ITERATION      FLAG    NUMBER        RESIDUAL        RESIDUAL          CHANGE                    MODEL-(CELLID)
 -------------------------------------------------------------------------------------------------------------------------------------------
 Backtracking              1                   0         0     113.125         113.125    
 Linear Solver             1        34                                                       -0.168608                        1_GWF-(1,30,7)
 Under-relaxation          1                                                                 -0.168608                        1_GWF-(1,30,7)
 Backtracking              2                   0         0     7.78051         7.78051    
 Linear Solver             2        18                                                       -5.559454E-03                   1_GWF-(1,38,16)

 2 CALLS TO NUMERICAL SOLUTION IN TIME STEP 1 STRESS PERIOD 20
 52 TOTAL ITERATIONS
1
                            STRESS PERIOD NO.   21, LENGTH =   31.00000    
                            -----------------------------------------------

                              NUMBER OF TIME STEPS =     1

                               MULTIPLIER FOR DELT =     1.000

                            INITIAL TIME STEP SIZE =   31.00000    


 OUTER ITERATION SUMMARY
 -------------------------------------------------------------------------------------------------------------------------------------------
                       OUTER     INNER BACKTRACK BACKTRACK        INCOMING        OUTGOING         MAXIMUM                    MAXIMUM CHANGE
                   ITERATION ITERATION      FLAG    NUMBER        RESIDUAL        RESIDUAL          CHANGE                    MODEL-(CELLID)
 -------------------------------------------------------------------------------------------------------------------------------------------
 Backtracking              1                   0         0     64.0053         64.0053    
 Linear Solver             1        21                                                       -0.130180                        1_GWF-(1,20,1)
 Under-relaxation          1                                                                 -0.130180                        1_GWF-(1,20,1)
 Backtracking              2                   0         0     6.38950         6.38950    
 Linear Solver             2        12                                                       -4.127180E-03                   1_GWF-(1,40,16)

 2 CALLS TO NUMERICAL SOLUTION IN TIME STEP 1 STRESS PERIOD 21
 33 TOTAL ITERATIONS
1
                            STRESS PERIOD NO.   22, LENGTH =   30.00000    
                            -----------------------------------------------

                              NUMBER OF TIME STEPS =     1

                               MULTIPLIER FOR DELT =     1.000

                            INITIAL TIME STEP SIZE =   30.00000    


 OUTER ITERATION SUMMARY
 -------------------------------------------------------------------------------------------------------------------------------------------
                       OUTER     INNER BACKTRACK BACKTRACK        INCOMING        OUTGOING         MAXIMUM                    MAXIMUM CHANGE
                   ITERATION ITERATION      FLAG    NUMBER        RESIDUAL        RESIDUAL          CHANGE                    MODEL-(CELLID)
 -------------------------------------------------------------------------------------------------------------------------------------------
 Backtracking              1                   0         0     81.2782         81.2782    
 Linear Solver             1        26                                                       -7.726592E-02                    1_GWF-(1,15,1)
 Under-relaxation          1                                                                 -7.726592E-02                    1_GWF-(1,15,1)
 Backtracking              2                   0         0     1.97337         1.97337    
 Linear Solver             2        12                                                       -2.881287E-03                   1_GWF-(3,35,19)

 2 CALLS TO NUMERICAL SOLUTION IN TIME STEP 1 STRESS PERIOD 22
 38 TOTAL ITERATIONS
1
                            STRESS PERIOD NO.   23, LENGTH =   31.00000    
                            -----------------------------------------------

                              NUMBER OF TIME STEPS =     1

                               MULTIPLIER FOR DELT =     1.000

                            INITIAL TIME STEP SIZE =   31.00000    


 OUTER ITERATION SUMMARY
 -------------------------------------------------------------------------------------------------------------------------------------------
                       OUTER     INNER BACKTRACK BACKTRACK        INCOMING        OUTGOING         MAXIMUM                    MAXIMUM CHANGE
                   ITERATION ITERATION      FLAG    NUMBER        RESIDUAL        RESIDUAL          CHANGE                    MODEL-(CELLID)
 -------------------------------------------------------------------------------------------------------------------------------------------
 Backtracking              1                   0         0     132.865         132.865    
 Linear Solver             1        33                                                        7.412396E-02                   1_GWF-(3,27,11)
 Under-relaxation          1                                                                  7.412396E-02                   1_GWF-(3,27,11)
 Backtracking              2                   0         0     3.57886         3.57886    
 Linear Solver             2        12                                                        2.871993E-03                   1_GWF-(1,38,16)

 2 CALLS TO NUMERICAL SOLUTION IN TIME STEP 1 STRESS PERIOD 23
 45 TOTAL ITERATIONS
1
                            STRESS PERIOD NO.   24, LENGTH =   30.00000    
                            -----------------------------------------------

                              NUMBER OF TIME STEPS =     1

                               MULTIPLIER FOR DELT =     1.000

                            INITIAL TIME STEP SIZE =   30.00000    


 OUTER ITERATION SUMMARY
 -------------------------------------------------------------------------------------------------------------------------------------------
                       OUTER     INNER BACKTRACK BACKTRACK        INCOMING        OUTGOING         MAXIMUM                    MAXIMUM CHANGE
                   ITERATION ITERATION      FLAG    NUMBER        RESIDUAL        RESIDUAL          CHANGE                    MODEL-(CELLID)
 -------------------------------------------------------------------------------------------------------------------------------------------
 Backtracking              1                   0         0     159.022         159.022    
 Linear Solver             1        42                                                        0.145348                        1_GWF-(3,30,7)
 Under-relaxation          1                                                                  0.145348                        1_GWF-(3,30,7)
 Backtracking              2                   0         0     6.74760         6.74760    
 Linear Solver             2        12                                                        4.923165E-03                   1_GWF-(1,39,16)

 2 CALLS TO NUMERICAL SOLUTION IN TIME STEP 1 STRESS PERIOD 24
 54 TOTAL ITERATIONS
1
                            STRESS PERIOD NO.   25, LENGTH =   31.00000    
                            -----------------------------------------------

                              NUMBER OF TIME STEPS =     1

                               MULTIPLIER FOR DELT =     1.000

                            INITIAL TIME STEP SIZE =   31.00000    


 OUTER ITERATION SUMMARY
 -------------------------------------------------------------------------------------------------------------------------------------------
                       OUTER     INNER BACKTRACK BACKTRACK        INCOMING        OUTGOING         MAXIMUM                    MAXIMUM CHANGE
                   ITERATION ITERATION      FLAG    NUMBER        RESIDUAL        RESIDUAL          CHANGE                    MODEL-(CELLID)
 -------------------------------------------------------------------------------------------------------------------------------------------
 Backtracking              1                   0         0     146.062         146.062    
 Linear Solver             1        38                                                        0.179854                        1_GWF-(1,30,7)
 Under-relaxation          1                                                                  0.179854                        1_GWF-(1,30,7)
 Backtracking              2                   0         0     7.56539         7.56539    
 Linear Solver             2        13                                                        5.374161E-03                   1_GWF-(1,39,16)

 2 CALLS TO NUMERICAL SOLUTION IN TIME STEP 1 STRESS PERIOD 25
 51 TOTAL ITERATIONS

 INFORMATION ON VARIABLES STORED IN THE MEMORY MANAGER
 
 Number of allocated integer variables:   151870
 Number of allocated real variables:    146065
 Allocated memory in megabytes:     1.77600    
 

 Run end date and time (yyyy/mm/dd hh:mm:ss): 2020/05/06  9:42:13
 Elapsed run time:  0.308 Seconds

 Normal termination of simulation.
