                                  MODFLOW-NWT-SWR1 
      U.S. GEOLOGICAL SURVEY MODULAR FINITE-DIFFERENCE GROUNDWATER-FLOW MODEL
                            VERSION 1.1.3, 8/01/2017
                    BASED ON MODFLOW-2005 VERSION 1.11.00 08/08/2013

 LIST FILE: freyberg.list
                         UNIT    2

 OPENING freyberg.dis
 FILE TYPE:DIS   UNIT   11   STATUS:OLD    
 FORMAT:FORMATTED              ACCESS:SEQUENTIAL          

 OPENING freyberg.bas
 FILE TYPE:BAS6   UNIT   13   STATUS:OLD    
 FORMAT:FORMATTED              ACCESS:SEQUENTIAL          

 OPENING freyberg.upw
 FILE TYPE:UPW   UNIT   31   STATUS:OLD    
 FORMAT:FORMATTED              ACCESS:SEQUENTIAL          

 OPENING freyberg.rch
 FILE TYPE:RCH   UNIT   19   STATUS:OLD    
 FORMAT:FORMATTED              ACCESS:SEQUENTIAL          

 OPENING freyberg.nwt
 FILE TYPE:NWT   UNIT   32   STATUS:OLD    
 FORMAT:FORMATTED              ACCESS:SEQUENTIAL          

 OPENING freyberg.oc
 FILE TYPE:OC   UNIT   14   STATUS:OLD    
 FORMAT:FORMATTED              ACCESS:SEQUENTIAL          

 OPENING freyberg.lmt6
 FILE TYPE:LMT6   UNIT   30   STATUS:OLD    
 FORMAT:FORMATTED              ACCESS:SEQUENTIAL          

 OPENING freyberg.wel
 FILE TYPE:WEL   UNIT   20   STATUS:OLD    
 FORMAT:FORMATTED              ACCESS:SEQUENTIAL          

 OPENING freyberg.sfr
 FILE TYPE:SFR   UNIT   17   STATUS:OLD    
 FORMAT:FORMATTED              ACCESS:SEQUENTIAL          

 OPENING freyberg.cbc
 FILE TYPE:DATA(BINARY)   UNIT   50   STATUS:REPLACE
 FORMAT:BINARY                 ACCESS:SEQUENTIAL          

 OPENING freyberg.hds
 FILE TYPE:DATA(BINARY)   UNIT   51   STATUS:REPLACE
 FORMAT:BINARY                 ACCESS:SEQUENTIAL          

 OPENING freyberg.sfr.out
 FILE TYPE:DATA   UNIT   60   STATUS:UNKNOWN
 FORMAT:FORMATTED              ACCESS:SEQUENTIAL          

 BAS -- BASIC PACKAGE, VERSION 1.1.3, 8/01/2017 INPUT READ FROM UNIT   13
 
 MODFLOW was compiled using mixed precision
 Precision of REAL variables:           6
 Precision of DOUBLE PRECISION variables:          15

 DISCRETIZATION INPUT DATA READ FROM UNIT   11
 # DIS package for  MODFLOW-NWT, generated by Flopy.
    3 LAYERS        40 ROWS        20 COLUMNS
    1 STRESS PERIOD(S) IN SIMULATION
 MODEL TIME UNIT IS DAYS
 MODEL LENGTH UNIT IS METERS
  Confining bed flag for each layer:
   0   0   0

 OPENING FILE ON UNIT   99:
 .\delr.ref                                                                                                                                                                                              



                               DELR
 READING ON UNIT   99 WITH FORMAT: (FREE)              

 OPENING FILE ON UNIT   99:
 .\delc.ref                                                                                                                                                                                              



                               DELC
 READING ON UNIT   99 WITH FORMAT: (FREE)              

 OPENING FILE ON UNIT   99:
 .\model_top.ref                                                                                                                                                                                         



           TOP ELEVATION OF LAYER 1
 READING ON UNIT   99 WITH FORMAT: (FREE)              

 OPENING FILE ON UNIT   99:
 .\botm_layer_1.ref                                                                                                                                                                                      



             MODEL LAYER BOTTOM EL. FOR LAYER   1
 READING ON UNIT   99 WITH FORMAT: (FREE)              

 OPENING FILE ON UNIT   99:
 .\botm_layer_2.ref                                                                                                                                                                                      



             MODEL LAYER BOTTOM EL. FOR LAYER   2
 READING ON UNIT   99 WITH FORMAT: (FREE)              

 OPENING FILE ON UNIT   99:
 .\botm_layer_3.ref                                                                                                                                                                                      



             MODEL LAYER BOTTOM EL. FOR LAYER   3
 READING ON UNIT   99 WITH FORMAT: (FREE)              


 STRESS PERIOD     LENGTH       TIME STEPS     MULTIPLIER FOR DELT    SS FLAG
 ----------------------------------------------------------------------------
        1         3650.000          1                    1.000         SS

 STEADY-STATE SIMULATION



 
 # BAS6 package for  MODFLOW-NWT, generated by Flopy.                            
 THE FREE FORMAT OPTION HAS BEEN SELECTED

 OPENING FILE ON UNIT   99:
 .\ibound_layer_1.ref                                                                                                                                                                                    



                     BOUNDARY ARRAY FOR LAYER   1
 READING ON UNIT   99 WITH FORMAT: (FREE)              

 OPENING FILE ON UNIT   99:
 .\ibound_layer_2.ref                                                                                                                                                                                    



                     BOUNDARY ARRAY FOR LAYER   2
 READING ON UNIT   99 WITH FORMAT: (FREE)              

 OPENING FILE ON UNIT   99:
 .\ibound_layer_3.ref                                                                                                                                                                                    



                     BOUNDARY ARRAY FOR LAYER   3
 READING ON UNIT   99 WITH FORMAT: (FREE)              

 AQUIFER HEAD WILL BE SET TO  -999.99     AT ALL NO-FLOW NODES (IBOUND=0).

 OPENING FILE ON UNIT   99:
 .\strt_layer_1.ref                                                                                                                                                                                      



                       INITIAL HEAD FOR LAYER   1
 READING ON UNIT   99 WITH FORMAT: (FREE)              

 OPENING FILE ON UNIT   99:
 .\strt_layer_2.ref                                                                                                                                                                                      



                       INITIAL HEAD FOR LAYER   2
 READING ON UNIT   99 WITH FORMAT: (FREE)              

 OPENING FILE ON UNIT   99:
 .\strt_layer_3.ref                                                                                                                                                                                      



                       INITIAL HEAD FOR LAYER   3
 READING ON UNIT   99 WITH FORMAT: (FREE)              
 # OC package for  MODFLOW-NWT, generated by Flopy.

 OUTPUT CONTROL IS SPECIFIED ONLY AT TIME STEPS FOR WHICH OUTPUT IS DESIRED
 COMPACT CELL-BY-CELL BUDGET FILES WILL BE WRITTEN
 AUXILIARY DATA WILL BE SAVED IN CELL-BY-CELL BUDGET FILES
 HEAD PRINT FORMAT CODE IS   0    DRAWDOWN PRINT FORMAT CODE IS   0
 HEADS WILL BE SAVED ON UNIT   51    DRAWDOWNS WILL BE SAVED ON UNIT    0
 # NWT package for  MODFLOW-NWT, generated by Flopy.

 NWT1 -- Newton Solver, VERSION 1.1.3, 8/01/2017
         INPUT READ FROM UNIT 32

 COMPLEX OPTION:
 DEFAULT SOLVER INPUT VALUES REFLECT STRONGLY NONLINEAR MODEL
 ***GMRES linear solver will be used***
 
   CONVERGENCE CRITERION OF   0.100000E-01 FOR HEAD SOLUTION
   AND A TOLERANCE OF   0.500000E+03 FOR FLOW SOLUTION AND 
   A MAXIMUM OF   100 OUTER ITERATIONS. 


   D-B-D REDUCTION FACTOR OF    0.850000E+00 AND 
   A D-B-D INCREASE FACTOR OF    0.100000E-04 AND 
   A D-B-D RELAXATION OF    0.000000E+00 AND 
   A MOMENTUM FACTOR OF    0.100000E+00 .


   BACKTRACKING IS ACTIVE 
   THE MAXIMUM NUMBER OF BACKTRACKS IS    50 AND 
   THE BACKTRACKING TOLERANCE IS    0.110000E+01 AND
   THE BACKTRACKING REDUCTION FACTOR IS    0.700000E+00

 GMRES -- LINEAR SOLUTION BY GMRES PACKAGE 
     adapted for HYDROTHERM by Kipp and others (2008)
     using software originally developed by Saad (1990) 32
     using algorithms described in Saad (2003)

 UPW1 -- UPSTREAM WEIGHTING FLOW PACKAGE, VERSION 1.1.3, 8/01/2017
         INPUT READ FROM UNIT 31

 # UPW package for  MODFLOW-NWT, generated by Flopy.
 CELL-BY-CELL FLOWS WILL BE SAVED ON UNIT   50
 No named parameters

   LAYER FLAGS:
 LAYER       LAYTYP          LAYAVG    CHANI           LAYVKA           LAYWET
 ---------------------------------------------------------------------------
    1             0             0     1.000E+00             0             0
    2             0             0     1.000E+00             0             0
    3             0             0     1.000E+00             0             0

   INTERPRETATION OF LAYER FLAGS:
                        INTERBLOCK     HORIZONTAL    DATA IN
         LAYER TYPE   TRANSMISSIVITY   ANISOTROPY   ARRAY VKA   WETTABILITY
 LAYER   (LAYTYP)        (LAYAVG)      (CHANI)     (LAYVKA)       (LAYWET)
 ---------------------------------------------------------------------------
    1      CONFINED      HARMONIC     1.000E+00    VERTICAL K  NON-WETTABLE
    2      CONFINED      HARMONIC     1.000E+00    VERTICAL K  NON-WETTABLE
    3      CONFINED      HARMONIC     1.000E+00    VERTICAL K  NON-WETTABLE

 OPENING FILE ON UNIT   99:
 .\hk_Layer_1.ref                                                                                                                                                                                        



              HYD. COND. ALONG ROWS FOR LAYER   1
 READING ON UNIT   99 WITH FORMAT: (FREE)              

 OPENING FILE ON UNIT   99:
 .\vka1.ref                                                                                                                                                                                              



                VERTICAL HYD. COND. FOR LAYER   1
 READING ON UNIT   99 WITH FORMAT: (FREE)              

 OPENING FILE ON UNIT   99:
 .\ss_Layer_1.ref                                                                                                                                                                                        



              HYD. COND. ALONG ROWS FOR LAYER   2
 READING ON UNIT   99 WITH FORMAT: (FREE)              

 OPENING FILE ON UNIT   99:
 .\hk_Layer_2.ref                                                                                                                                                                                        



                VERTICAL HYD. COND. FOR LAYER   2
 READING ON UNIT   99 WITH FORMAT: (FREE)              

 OPENING FILE ON UNIT   99:
 .\vka2.ref                                                                                                                                                                                              



              HYD. COND. ALONG ROWS FOR LAYER   3
 READING ON UNIT   99 WITH FORMAT: (FREE)              

 OPENING FILE ON UNIT   99:
 .\ss_Layer_2.ref                                                                                                                                                                                        



                VERTICAL HYD. COND. FOR LAYER   3
 READING ON UNIT   99 WITH FORMAT: (FREE)              

 WEL -- WELL PACKAGE FOR NWT VERSION 1.1.3,  8/01/2017 INPUT READ FROM UNIT   20
 # WEL package for  MODFLOW-NWT, generated by Flopy.
 No named parameters
 MAXIMUM OF      6 ACTIVE WELLS AT ONE TIME
 CELL-BY-CELL FLOWS WILL BE SAVED ON UNIT   50
 No named parameters
  PHIRAMP WILL BE SET TO A DEFAULT VALUE OF 1.0E-5
  WELLS WITH REDUCED PUMPING WILL BE REPORTED TO THE MAIN LISTING FILE


     0 Well parameters

 RCH -- RECHARGE PACKAGE, VERSION 7, 5/2/2005 INPUT READ FROM UNIT   19
 # RCH package for  MODFLOW-NWT, generated by Flopy.
 No named parameters
 OPTION 3 -- RECHARGE TO HIGHEST ACTIVE NODE IN EACH VERTICAL COLUMN
 CELL-BY-CELL FLOWS WILL BE SAVED ON UNIT   50


     0 Recharge parameters

 SFR7 -- STREAMFLOW ROUTING PACKAGE, VERSION 1.0.5, 2012-04-05
         INPUT READ FROM UNIT  17
 # SFR package for  MODFLOW-NWT, generated by Flopy.
 No named parameters
  Some stream information will be read by reach. This option replaces NSTRM<0


 NUMBER OF STREAM REACHES IS   40

 NUMBER OF STREAM SEGMENTS IS   40

 NUMBER OF STREAM PARAMETERS IS    0

 NUMBER OF STREAM SEGMENTS DEFINED USING PARAMETERS IS              0

 MAXIMUM ERROR FOR STREAM LEAKAGE RATES IS  1.00E-04

 CONSTANT FOR MANNINGS EQUATION IS  8.6400E+04





 USING DATA INPUT MODIFIED FROM ORIGINAL SFR PROGRAM FOR FARM PACKAGE

 FLOW TO AND FROM GROUND WATER FOR EACH STREAM REACH WILL BE SAVED ON UNIT   50
 STREAM OUTPUT WILL BE WRITTEN TO FILE ON UNIT   60


   STREAM NETWORK DESCRIPTION: 

   LAYER    ROW    COL   SEGMENT   REACH     LENGTH     STREAMBED     STREAMBED   STREAMBED     STREAMBED
                          NUMBER   NUMBER    IN CELL    TOP ELEV.       SLOPE     THICKNESS   HYDR. CONDUCT.        
   ---------------------------------------------------------------------------------------------------------
       1      1     16       1        1    2.5000E+02   3.5000E+01   1.0000E-03   1.0000E+00   1.0000E-01
       1      2     16       2        1    2.5000E+02   3.4750E+01   1.0000E-03   1.0000E+00   1.0000E-01
       1      3     16       3        1    2.5000E+02   3.4500E+01   1.0000E-03   1.0000E+00   1.0000E-01
       1      4     16       4        1    2.5000E+02   3.4250E+01   1.0000E-03   1.0000E+00   1.0000E-01
       1      5     16       5        1    2.5000E+02   3.4000E+01   1.0000E-03   1.0000E+00   1.0000E-01
       1      6     16       6        1    2.5000E+02   3.3750E+01   1.0000E-03   1.0000E+00   1.0000E-01
       1      7     16       7        1    2.5000E+02   3.3500E+01   1.0000E-03   1.0000E+00   1.0000E-01
       1      8     16       8        1    2.5000E+02   3.3250E+01   1.0000E-03   1.0000E+00   1.0000E-01
       1      9     16       9        1    2.5000E+02   3.3000E+01   1.0000E-03   1.0000E+00   1.0000E-01
       1     10     16      10        1    2.5000E+02   3.2750E+01   1.0000E-03   1.0000E+00   1.0000E-01
       1     11     16      11        1    2.5000E+02   3.2500E+01   1.0000E-03   1.0000E+00   1.0000E-01
       1     12     16      12        1    2.5000E+02   3.2250E+01   1.0000E-03   1.0000E+00   1.0000E-01
       1     13     16      13        1    2.5000E+02   3.2000E+01   1.0000E-03   1.0000E+00   1.0000E-01
       1     14     16      14        1    2.5000E+02   3.1750E+01   1.0000E-03   1.0000E+00   1.0000E-01
       1     15     16      15        1    2.5000E+02   3.1500E+01   1.0000E-03   1.0000E+00   1.0000E-01
       1     16     16      16        1    2.5000E+02   3.1250E+01   1.0000E-03   1.0000E+00   1.0000E-01
       1     17     16      17        1    2.5000E+02   3.1000E+01   1.0000E-03   1.0000E+00   1.0000E-01
       1     18     16      18        1    2.5000E+02   3.0750E+01   1.0000E-03   1.0000E+00   1.0000E-01
       1     19     16      19        1    2.5000E+02   3.0500E+01   1.0000E-03   1.0000E+00   1.0000E-01
       1     20     16      20        1    2.5000E+02   3.0250E+01   1.0000E-03   1.0000E+00   1.0000E-01
       1     21     16      21        1    2.5000E+02   3.0000E+01   1.0000E-03   1.0000E+00   1.0000E-01
       1     22     16      22        1    2.5000E+02   2.9750E+01   1.0000E-03   1.0000E+00   1.0000E-01
       1     23     16      23        1    2.5000E+02   2.9500E+01   1.0000E-03   1.0000E+00   1.0000E-01
       1     24     16      24        1    2.5000E+02   2.9250E+01   1.0000E-03   1.0000E+00   1.0000E-01
       1     25     16      25        1    2.5000E+02   2.9000E+01   1.0000E-03   1.0000E+00   1.0000E-01
       1     26     16      26        1    2.5000E+02   2.8750E+01   1.0000E-03   1.0000E+00   1.0000E-01
       1     27     16      27        1    2.5000E+02   2.8500E+01   1.0000E-03   1.0000E+00   1.0000E-01
       1     28     16      28        1    2.5000E+02   2.8250E+01   1.0000E-03   1.0000E+00   1.0000E-01
       1     29     16      29        1    2.5000E+02   2.8000E+01   1.0000E-03   1.0000E+00   1.0000E-01
       1     30     16      30        1    2.5000E+02   2.7750E+01   1.0000E-03   1.0000E+00   1.0000E-01
       1     31     16      31        1    2.5000E+02   2.7500E+01   1.0000E-03   1.0000E+00   1.0000E-01
       1     32     16      32        1    2.5000E+02   2.7250E+01   1.0000E-03   1.0000E+00   1.0000E-01
       1     33     16      33        1    2.5000E+02   2.7000E+01   1.0000E-03   1.0000E+00   1.0000E-01
       1     34     16      34        1    2.5000E+02   2.6750E+01   1.0000E-03   1.0000E+00   1.0000E-01
       1     35     16      35        1    2.5000E+02   2.6500E+01   1.0000E-03   1.0000E+00   1.0000E-01
       1     36     16      36        1    2.5000E+02   2.6250E+01   1.0000E-03   1.0000E+00   1.0000E-01
       1     37     16      37        1    2.5000E+02   2.6000E+01   1.0000E-03   1.0000E+00   1.0000E-01
       1     38     16      38        1    2.5000E+02   2.5750E+01   1.0000E-03   1.0000E+00   1.0000E-01
       1     39     16      39        1    2.5000E+02   2.5500E+01   1.0000E-03   1.0000E+00   1.0000E-01
       1     40     16      40        1    2.5000E+02   2.5250E+01   1.0000E-03   1.0000E+00   1.0000E-01

 *** WARNING *** FIRST OCCURRENCE WHERE A STREAM REACH IS ASSIGNED TO AN INACTIVE CELL IS SEGMENT   40 REACH NO.    1
  IBOUND ARRAY VALUE IS    0 AT LAYER    1; ROW   40; COLUMN   16.

 *** WARNING *** ONLY 1 STREAM REACH WAS ASSIGNED TO A CELL WHERE THE IBOUND ARRAY WAS ZERO.
 PROGRAM SEARCHES FOR UPPERMOST ACTIVE CELL IN VERTICAL COLUMN,IF ALL CELLS ARE INACTIVE, STREAM LEAKAGE WILL NOT BE ALLOWED. 






 ***Link-MT3DMS Package v7***
 OPENING LINK-MT3DMS OUTPUT FILE: mt3d_link.ftl                                                                                                                                                                                           
 ON UNIT NUMBER:    54
 FILE TYPE: FORMATTED  
 HEADER OPTION: EXTENDED
 ***Link-MT3DMS Package v7***

1
                            STRESS PERIOD NO.    1, LENGTH =   3650.000    
                            -----------------------------------------------

                              NUMBER OF TIME STEPS =     1

                               MULTIPLIER FOR DELT =     1.000

                            INITIAL TIME STEP SIZE =   3650.000    

 OPENING FILE ON UNIT   99:
 .\WEL_0000.dat                                                                                                                                                                                          

 WELL NO.  LAYER   ROW   COL   STRESS RATE         
 --------------------------------------------------
      1      3     10     17      -708.0    
      2      3     12     14      -354.0    
      3      3     21     15      -336.0    
      4      3     27     11      -71.00    
      5      3     30      7      -62.00    
      6      3     35     13      -371.0    

      6 WELLS

 OPENING FILE ON UNIT   99:
 .\rech_0.ref                                                                                                                                                                                            



                           RECHARGE
 READING ON UNIT   99 WITH FORMAT: (FREE)              



 CLASSIFICATION & COUNT OF STREAM SEGMENTS BASED ON SOURCE OF INFLOW:

                HEADWATER     DIVERSION     RECEIVES TRIBUTARY FLOW
                ---------     ---------     -----------------------
                     1              0              39



                    INPUT DATA FOR EACH STREAM SEGMENT
 ---------------------------------------------------------------------------------------------

 SEGMENT    SEG.     INFLOW   OVERLAND   STREAM    STREAM   ICALC  OUTFLOW  DIVERSION PRIORITY
    NO.    LENGTH     RATE     RUNOFF      ET       PPT.    METH.  TO SEG.  FROM SEG.    NO.

      1  2.500E+02 0.000E+00 0.000E+00 0.000E+00 0.000E+00    1        2        0        0
      2  2.500E+02 0.000E+00 0.000E+00 0.000E+00 0.000E+00    1        3        0        0
      3  2.500E+02 0.000E+00 0.000E+00 0.000E+00 0.000E+00    1        4        0        0
      4  2.500E+02 0.000E+00 0.000E+00 0.000E+00 0.000E+00    1        5        0        0
      5  2.500E+02 0.000E+00 0.000E+00 0.000E+00 0.000E+00    1        6        0        0
      6  2.500E+02 0.000E+00 0.000E+00 0.000E+00 0.000E+00    1        7        0        0
      7  2.500E+02 0.000E+00 0.000E+00 0.000E+00 0.000E+00    1        8        0        0
      8  2.500E+02 0.000E+00 0.000E+00 0.000E+00 0.000E+00    1        9        0        0
      9  2.500E+02 0.000E+00 0.000E+00 0.000E+00 0.000E+00    1       10        0        0
     10  2.500E+02 0.000E+00 0.000E+00 0.000E+00 0.000E+00    1       11        0        0
     11  2.500E+02 0.000E+00 0.000E+00 0.000E+00 0.000E+00    1       12        0        0
     12  2.500E+02 0.000E+00 0.000E+00 0.000E+00 0.000E+00    1       13        0        0
     13  2.500E+02 0.000E+00 0.000E+00 0.000E+00 0.000E+00    1       14        0        0
     14  2.500E+02 0.000E+00 0.000E+00 0.000E+00 0.000E+00    1       15        0        0
     15  2.500E+02 0.000E+00 0.000E+00 0.000E+00 0.000E+00    1       16        0        0
     16  2.500E+02 0.000E+00 0.000E+00 0.000E+00 0.000E+00    1       17        0        0
     17  2.500E+02 0.000E+00 0.000E+00 0.000E+00 0.000E+00    1       18        0        0
     18  2.500E+02 0.000E+00 0.000E+00 0.000E+00 0.000E+00    1       19        0        0
     19  2.500E+02 0.000E+00 0.000E+00 0.000E+00 0.000E+00    1       20        0        0
     20  2.500E+02 0.000E+00 0.000E+00 0.000E+00 0.000E+00    1       21        0        0
     21  2.500E+02 0.000E+00 0.000E+00 0.000E+00 0.000E+00    1       22        0        0
     22  2.500E+02 0.000E+00 0.000E+00 0.000E+00 0.000E+00    1       23        0        0
     23  2.500E+02 0.000E+00 0.000E+00 0.000E+00 0.000E+00    1       24        0        0
     24  2.500E+02 0.000E+00 0.000E+00 0.000E+00 0.000E+00    1       25        0        0
     25  2.500E+02 0.000E+00 0.000E+00 0.000E+00 0.000E+00    1       26        0        0
     26  2.500E+02 0.000E+00 0.000E+00 0.000E+00 0.000E+00    1       27        0        0
     27  2.500E+02 0.000E+00 0.000E+00 0.000E+00 0.000E+00    1       28        0        0
     28  2.500E+02 0.000E+00 0.000E+00 0.000E+00 0.000E+00    1       29        0        0
     29  2.500E+02 0.000E+00 0.000E+00 0.000E+00 0.000E+00    1       30        0        0
     30  2.500E+02 0.000E+00 0.000E+00 0.000E+00 0.000E+00    1       31        0        0
     31  2.500E+02 0.000E+00 0.000E+00 0.000E+00 0.000E+00    1       32        0        0
     32  2.500E+02 0.000E+00 0.000E+00 0.000E+00 0.000E+00    1       33        0        0
     33  2.500E+02 0.000E+00 0.000E+00 0.000E+00 0.000E+00    1       34        0        0
     34  2.500E+02 0.000E+00 0.000E+00 0.000E+00 0.000E+00    1       35        0        0
     35  2.500E+02 0.000E+00 0.000E+00 0.000E+00 0.000E+00    1       36        0        0
     36  2.500E+02 0.000E+00 0.000E+00 0.000E+00 0.000E+00    1       37        0        0
     37  2.500E+02 0.000E+00 0.000E+00 0.000E+00 0.000E+00    1       38        0        0
     38  2.500E+02 0.000E+00 0.000E+00 0.000E+00 0.000E+00    1       39        0        0
     39  2.500E+02 0.000E+00 0.000E+00 0.000E+00 0.000E+00    1       40        0        0
     40  2.500E+02 0.000E+00 0.000E+00 0.000E+00 0.000E+00    1        0        0        0


         STREAMBED PROPERTIES AND STREAM DIMENSIONS

 SEGMENT     WIDTH OF STREAM     DEPTH OF STREAM    STREAM ROUGHNESS
    No.     UPPER     LOWER     UPPER     LOWER     CHANNEL      BANK

     1    1.000E+01 1.000E+01                      1.000E-01
     2    1.000E+01 1.000E+01                      1.000E-01
     3    1.000E+01 1.000E+01                      1.000E-01
     4    1.000E+01 1.000E+01                      1.000E-01
     5    1.000E+01 1.000E+01                      1.000E-01
     6    1.000E+01 1.000E+01                      1.000E-01
     7    1.000E+01 1.000E+01                      1.000E-01
     8    1.000E+01 1.000E+01                      1.000E-01
     9    1.000E+01 1.000E+01                      1.000E-01
    10    1.000E+01 1.000E+01                      1.000E-01
    11    1.000E+01 1.000E+01                      1.000E-01
    12    1.000E+01 1.000E+01                      1.000E-01
    13    1.000E+01 1.000E+01                      1.000E-01
    14    1.000E+01 1.000E+01                      1.000E-01
    15    1.000E+01 1.000E+01                      1.000E-01
    16    1.000E+01 1.000E+01                      1.000E-01
    17    1.000E+01 1.000E+01                      1.000E-01
    18    1.000E+01 1.000E+01                      1.000E-01
    19    1.000E+01 1.000E+01                      1.000E-01
    20    1.000E+01 1.000E+01                      1.000E-01
    21    1.000E+01 1.000E+01                      1.000E-01
    22    1.000E+01 1.000E+01                      1.000E-01
    23    1.000E+01 1.000E+01                      1.000E-01
    24    1.000E+01 1.000E+01                      1.000E-01
    25    1.000E+01 1.000E+01                      1.000E-01
    26    1.000E+01 1.000E+01                      1.000E-01
    27    1.000E+01 1.000E+01                      1.000E-01
    28    1.000E+01 1.000E+01                      1.000E-01
    29    1.000E+01 1.000E+01                      1.000E-01
    30    1.000E+01 1.000E+01                      1.000E-01
    31    1.000E+01 1.000E+01                      1.000E-01
    32    1.000E+01 1.000E+01                      1.000E-01
    33    1.000E+01 1.000E+01                      1.000E-01
    34    1.000E+01 1.000E+01                      1.000E-01
    35    1.000E+01 1.000E+01                      1.000E-01
    36    1.000E+01 1.000E+01                      1.000E-01
    37    1.000E+01 1.000E+01                      1.000E-01
    38    1.000E+01 1.000E+01                      1.000E-01
    39    1.000E+01 1.000E+01                      1.000E-01
    40    1.000E+01 1.000E+01                      1.000E-01



 
 SOLVING FOR HEAD 

    ------------------------------------------------
       NWT REQUIRED            6 OUTER ITERATIONS 
       AND A TOTAL OF        200 INNER ITERATIONS.
    ------------------------------------------------

 OUTPUT CONTROL FOR STRESS PERIOD    1   TIME STEP    1
    SAVE HEAD FOR ALL LAYERS
    SAVE BUDGET
 UBDSV2 SAVING "   CONSTANT HEAD" ON UNIT  50 AT TIME STEP     1, STRESS PERIOD   1
 UBDSV1 SAVING "FLOW RIGHT FACE " ON UNIT  50 AT TIME STEP     1, STRESS PERIOD   1
 UBDSV1 SAVING "FLOW FRONT FACE " ON UNIT  50 AT TIME STEP     1, STRESS PERIOD   1
 UBDSV1 SAVING "FLOW LOWER FACE " ON UNIT  50 AT TIME STEP     1, STRESS PERIOD   1
 UBDSV4 SAVING "           WELLS" ON UNIT  50 AT TIME STEP     1, STRESS PERIOD   1
 UBDSV3 SAVING "        RECHARGE" ON UNIT  50 AT TIME STEP     1, STRESS PERIOD   1
 UBDSV4 SAVING "  STREAM LEAKAGE" ON UNIT  50 AT TIME STEP     1, STRESS PERIOD   1




 SAVING SATURATED THICKNESS AND FLOW TERMS ON UNIT   54 FOR MT3DMS
 BY THE LINK-MT3DMS PACKAGE V7 AT TIME STEP    1, STRESS PERIOD    1


 HEAD WILL BE SAVED ON UNIT   51 AT END OF TIME STEP    1, STRESS PERIOD    1
1
  VOLUMETRIC BUDGET FOR ENTIRE MODEL AT END OF TIME STEP    1, STRESS PERIOD   1
  ------------------------------------------------------------------------------

     CUMULATIVE VOLUMES      L**3       RATES FOR THIS TIME STEP      L**3/T
     ------------------                 ------------------------

           IN:                                      IN:
           ---                                      ---
             STORAGE =           0.0000               STORAGE =           0.0000
       CONSTANT HEAD =           0.0000         CONSTANT HEAD =           0.0000
               WELLS =           0.0000                 WELLS =           0.0000
            RECHARGE =    21917520.0000              RECHARGE =        6004.7998
      STREAM LEAKAGE =           0.0000        STREAM LEAKAGE =           0.0000

            TOTAL IN =    21917520.0000              TOTAL IN =        6004.7998

          OUT:                                     OUT:
          ----                                     ----
             STORAGE =           0.0000               STORAGE =           0.0000
       CONSTANT HEAD =    10728969.0000         CONSTANT HEAD =        2939.4436
               WELLS =     6942300.0000                 WELLS =        1902.0000
            RECHARGE =           0.0000              RECHARGE =           0.0000
      STREAM LEAKAGE =     4246356.5000        STREAM LEAKAGE =        1163.3854

           TOTAL OUT =    21917624.0000             TOTAL OUT =        6004.8291

            IN - OUT =        -104.0000              IN - OUT =      -2.9297E-02

 PERCENT DISCREPANCY =          -0.00     PERCENT DISCREPANCY =          -0.00






         TIME SUMMARY AT END OF TIME STEP    1 IN STRESS PERIOD    1
                    SECONDS     MINUTES      HOURS       DAYS        YEARS
                    -----------------------------------------------------------
   TIME STEP LENGTH 3.15360E+08 5.25600E+06  87600.      3650.0      9.9932    
 STRESS PERIOD TIME 3.15360E+08 5.25600E+06  87600.      3650.0      9.9932    
         TOTAL TIME 3.15360E+08 5.25600E+06  87600.      3650.0      9.9932    
1

 Run end date and time (yyyy/mm/dd hh:mm:ss): 2019/01/16 13:33:14
 Elapsed run time:  0.142 Seconds

