                                  MODFLOW-NWT-SWR1 
      U.S. GEOLOGICAL SURVEY MODULAR FINITE-DIFFERENCE GROUNDWATER-FLOW MODEL
                            VERSION 1.1.3, 8/01/2017
                    BASED ON MODFLOW-2005 VERSION 1.11.00 08/08/2013

 LIST FILE: pp_model.list
                         UNIT    2

 OPENING pp_model.dis
 FILE TYPE:DIS   UNIT   11   STATUS:OLD    
 FORMAT:FORMATTED              ACCESS:SEQUENTIAL          

 OPENING pp_model.bas
 FILE TYPE:BAS6   UNIT   13   STATUS:OLD    
 FORMAT:FORMATTED              ACCESS:SEQUENTIAL          

 OPENING pp_model.upw
 FILE TYPE:UPW   UNIT   31   STATUS:OLD    
 FORMAT:FORMATTED              ACCESS:SEQUENTIAL          

 OPENING pp_model.oc
 FILE TYPE:OC   UNIT   14   STATUS:OLD    
 FORMAT:FORMATTED              ACCESS:SEQUENTIAL          

 OPENING pp_model.wel
 FILE TYPE:WEL   UNIT   20   STATUS:OLD    
 FORMAT:FORMATTED              ACCESS:SEQUENTIAL          

 OPENING pp_model.ghb
 FILE TYPE:GHB   UNIT   23   STATUS:OLD    
 FORMAT:FORMATTED              ACCESS:SEQUENTIAL          

 OPENING pp_model.nwt
 FILE TYPE:NWT   UNIT   32   STATUS:OLD    
 FORMAT:FORMATTED              ACCESS:SEQUENTIAL          

 OPENING pp_model.hob
 FILE TYPE:HOB   UNIT   39   STATUS:OLD    
 FORMAT:FORMATTED              ACCESS:SEQUENTIAL          

 OPENING pp_model.cbc
 FILE TYPE:DATA(BINARY)   UNIT   55   STATUS:REPLACE
 FORMAT:BINARY                 ACCESS:SEQUENTIAL          

 OPENING pp_model.hds
 FILE TYPE:DATA(BINARY)   UNIT   51   STATUS:REPLACE
 FORMAT:BINARY                 ACCESS:SEQUENTIAL          

 OPENING pp_model.hob.out
 FILE TYPE:DATA   UNIT   52   STATUS:UNKNOWN
 FORMAT:FORMATTED              ACCESS:SEQUENTIAL          

 BAS -- BASIC PACKAGE, VERSION 1.1.3, 8/01/2017 INPUT READ FROM UNIT   13
 
 MODFLOW was compiled using mixed precision
 Precision of REAL variables:           6
 Precision of DOUBLE PRECISION variables:          15

 DISCRETIZATION INPUT DATA READ FROM UNIT   11
 # DIS package for  MODFLOW-NWT, generated by Flopy.
    1 LAYERS        50 ROWS        50 COLUMNS
    2 STRESS PERIOD(S) IN SIMULATION
 MODEL TIME UNIT IS DAYS
 MODEL LENGTH UNIT IS METERS
  Confining bed flag for each layer:
   0

                     DELR =   50.0000    

                     DELC =   50.0000    

 TOP ELEVATION OF LAYER 1 =   50.0000    

   MODEL LAYER BOTTOM EL. =   0.00000     FOR LAYER   1


 STRESS PERIOD     LENGTH       TIME STEPS     MULTIPLIER FOR DELT    SS FLAG
 ----------------------------------------------------------------------------
        1         1.000000          1                    1.000         SS
        2         40.00000         40                    1.000         TR

 COMBINED STEADY-STATE AND TRANSIENT SIMULATION



 
 # BAS6 package for  MODFLOW-NWT, generated by Flopy.                            
 THE FREE FORMAT OPTION HAS BEEN SELECTED



                     BOUNDARY ARRAY FOR LAYER   1
 READING ON UNIT   13 WITH FORMAT: (50I10)             

 AQUIFER HEAD WILL BE SET TO  -999.99     AT ALL NO-FLOW NODES (IBOUND=0).



                       INITIAL HEAD FOR LAYER   1
 READING ON UNIT   13 WITH FORMAT: (50E15.6)           
 # OC package for  MODFLOW-NWT, generated by Flopy.

 OUTPUT CONTROL IS SPECIFIED ONLY AT TIME STEPS FOR WHICH OUTPUT IS DESIRED
 COMPACT CELL-BY-CELL BUDGET FILES WILL BE WRITTEN
 AUXILIARY DATA WILL BE SAVED IN CELL-BY-CELL BUDGET FILES
 HEAD PRINT FORMAT CODE IS   0    DRAWDOWN PRINT FORMAT CODE IS   0
 HEADS WILL BE SAVED ON UNIT   51    DRAWDOWNS WILL BE SAVED ON UNIT    0
 # NWT package for  MODFLOW-NWT, generated by Flopy.

 NWT1 -- Newton Solver, VERSION 1.1.3, 8/01/2017
         INPUT READ FROM UNIT 32

 SPECIFIED OPTION:
 SOLVER INPUT VALUES ARE SPECIFIED BY USER
 ***XMD linear solver will be used***
 
   CONVERGENCE CRITERION OF   0.500000E-01 FOR HEAD SOLUTION
   AND A TOLERANCE OF   0.200000E+02 FOR FLOW SOLUTION AND 
   A MAXIMUM OF  1000 OUTER ITERATIONS. 


   D-B-D REDUCTION FACTOR OF    0.970000E+00 AND 
   A D-B-D INCREASE FACTOR OF    0.100000E-03 AND 
   A D-B-D RELAXATION OF    0.000000E+00 AND 
   A MOMENTUM FACTOR OF    0.100000E+00 .


 ***BACKTRACKING IS INACTIVE***
 XMD -- LINEAR SOLUTION BY XMD PACKAGE VERSION 1.30
     BY MOTOMU IBARAKI, OHIO STATE UNIVERSITY, COLOMBUS, OH
                 INPUT READ FROM UNIT 32
 ACCELERATION METHOD                    (IACL) =         1
 NODE ORDERING FLAG                   (NORDER) =         0
 LEVEL OF FILL                         (LEVEL) =         3
 MAXIMUM NUMBER OF ORTHOGONALIZATIONS  (NORTH) =         7
 INDEX FOR USING REDUCED SYSTEM      (IREDSYS) =         0
 RESID. REDUCTION CONVERGE CRITERION  (RRCTOL) =  0.000000E+00
 INDEX FOR USING DROP TOLERANCE     (IDROPTOL) =         1
 DROP TOLERANCE VALUE                  (EPSRN) =  0.500000E-02
 CONVERGENCE CRITERIA OF           (HCLOSEXMD) =  0.100000E-02
 MAX. NUMBER OF LINEAR ITERATIONS  (MXITERXMD) =       200


 UPW1 -- UPSTREAM WEIGHTING FLOW PACKAGE, VERSION 1.1.3, 8/01/2017
         INPUT READ FROM UNIT 31

 # UPW package for  MODFLOW-NWT, generated by Flopy.
 CELL-BY-CELL FLOWS WILL BE SAVED ON UNIT   55
 No named parameters

   LAYER FLAGS:
 LAYER       LAYTYP          LAYAVG    CHANI           LAYVKA           LAYWET
 ---------------------------------------------------------------------------
    1             1             0     1.000E+00             0             0

   INTERPRETATION OF LAYER FLAGS:
                        INTERBLOCK     HORIZONTAL    DATA IN
         LAYER TYPE   TRANSMISSIVITY   ANISOTROPY   ARRAY VKA   WETTABILITY
 LAYER   (LAYTYP)        (LAYAVG)      (CHANI)     (LAYVKA)       (LAYWET)
 ---------------------------------------------------------------------------
    1   CONVERTIBLE      HARMONIC     1.000E+00    VERTICAL K  NON-WETTABLE



              HYD. COND. ALONG ROWS FOR LAYER   1
 READING ON UNIT   31 WITH FORMAT: (50E15.6)           



                VERTICAL HYD. COND. FOR LAYER   1
 READING ON UNIT   31 WITH FORMAT: (50E15.6)           



                   SPECIFIC STORAGE FOR LAYER   1
 READING ON UNIT   31 WITH FORMAT: (50E15.6)           



                     SPECIFIC YIELD FOR LAYER   1
 READING ON UNIT   31 WITH FORMAT: (50E15.6)           

 WEL -- WELL PACKAGE FOR NWT VERSION 1.1.3,  8/01/2017 INPUT READ FROM UNIT   20
 # WEL package for  MODFLOW-NWT, generated by Flopy.
 No named parameters
 MAXIMUM OF      1 ACTIVE WELLS AT ONE TIME
 No named parameters
  PHIRAMP WILL BE SET TO A DEFAULT VALUE OF 1.0E-5
  WELLS WITH REDUCED PUMPING WILL BE REPORTED TO THE MAIN LISTING FILE


     0 Well parameters

 GHB -- GENERAL-HEAD BOUNDARY PACKAGE, VERSION 7, 5/2/2005
         INPUT READ FROM UNIT   23
 # GHB package for  MODFLOW-NWT, generated by Flopy.
 No named parameters
 MAXIMUM OF    100 ACTIVE GHB CELLS AT ONE TIME


     0 GHB parameters

 OBS2BAS7 -- HEAD OBSERVATIONS, VERSION 2.0, 2/28/2006
 INPUT READ FROM UNIT  39
 # HOB package for  MODFLOW-NWT, generated by Flopy.

 NUMBER OF HEADS....................................: 2009
   NUMBER OF MULTILAYER HEADS.......................:    0
   MAXIMUM NUMBER OF LAYERS FOR MULTILAYER HEADS....:    0
 HEAD OBSERVATIONS WILL BE SAVED ON UNIT............:   52
 SIMULATED EQUIVALENT HEAD AT DRY CELLS WILL BE:   -9999.00    

 OBSERVED HEAD DATA -- TIME OFFSETS ARE MULTIPLIED BY:   1.0000    

                    REFER.
       OBSERVATION  STRESS    TIME
  OBS#    NAME      PERIOD   OFFSET    OBSERVATION
     1 HO_0           -41    0.000       0.000    
  TRANSIENT DATA AT THIS LOCATION, ITT =   1
     1 HO_0.1           2    0.000       0.000    
     2 HO_0.2           2    1.000       0.000    
     3 HO_0.3           2    2.000       0.000    
     4 HO_0.4           2    3.000       0.000    
     5 HO_0.5           2    4.000       0.000    
     6 HO_0.6           2    5.000       0.000    
     7 HO_0.7           2    6.000       0.000    
     8 HO_0.8           2    7.000       0.000    
     9 HO_0.9           2    8.000       0.000    
    10 HO_0.10          2    9.000       0.000    
    11 HO_0.11          2    10.00       0.000    
    12 HO_0.12          2    11.00       0.000    
    13 HO_0.13          2    12.00       0.000    
    14 HO_0.14          2    13.00       0.000    
    15 HO_0.15          2    14.00       0.000    
    16 HO_0.16          2    15.00       0.000    
    17 HO_0.17          2    16.00       0.000    
    18 HO_0.18          2    17.00       0.000    
    19 HO_0.19          2    18.00       0.000    
    20 HO_0.20          2    19.00       0.000    
    21 HO_0.21          2    20.00       0.000    
    22 HO_0.22          2    21.00       0.000    
    23 HO_0.23          2    22.00       0.000    
    24 HO_0.24          2    23.00       0.000    
    25 HO_0.25          2    24.00       0.000    
    26 HO_0.26          2    25.00       0.000    
    27 HO_0.27          2    26.00       0.000    
    28 HO_0.28          2    27.00       0.000    
    29 HO_0.29          2    28.00       0.000    
    30 HO_0.30          2    29.00       0.000    
    31 HO_0.31          2    30.00       0.000    
    32 HO_0.32          2    31.00       0.000    
    33 HO_0.33          2    32.00       0.000    
    34 HO_0.34          2    33.00       0.000    
    35 HO_0.35          2    34.00       0.000    
    36 HO_0.36          2    35.00       0.000    
    37 HO_0.37          2    36.00       0.000    
    38 HO_0.38          2    37.00       0.000    
    39 HO_0.39          2    38.00       0.000    
    40 HO_0.40          2    39.00       0.000    
    41 HO_0.41          2    40.00       0.000    
 
    42 HO_1           -41    0.000       0.000    
  TRANSIENT DATA AT THIS LOCATION, ITT =   1
    42 HO_1.1           2    0.000       0.000    
    43 HO_1.2           2    1.000       0.000    
    44 HO_1.3           2    2.000       0.000    
    45 HO_1.4           2    3.000       0.000    
    46 HO_1.5           2    4.000       0.000    
    47 HO_1.6           2    5.000       0.000    
    48 HO_1.7           2    6.000       0.000    
    49 HO_1.8           2    7.000       0.000    
    50 HO_1.9           2    8.000       0.000    
    51 HO_1.10          2    9.000       0.000    
    52 HO_1.11          2    10.00       0.000    
    53 HO_1.12          2    11.00       0.000    
    54 HO_1.13          2    12.00       0.000    
    55 HO_1.14          2    13.00       0.000    
    56 HO_1.15          2    14.00       0.000    
    57 HO_1.16          2    15.00       0.000    
    58 HO_1.17          2    16.00       0.000    
    59 HO_1.18          2    17.00       0.000    
    60 HO_1.19          2    18.00       0.000    
    61 HO_1.20          2    19.00       0.000    
    62 HO_1.21          2    20.00       0.000    
    63 HO_1.22          2    21.00       0.000    
    64 HO_1.23          2    22.00       0.000    
    65 HO_1.24          2    23.00       0.000    
    66 HO_1.25          2    24.00       0.000    
    67 HO_1.26          2    25.00       0.000    
    68 HO_1.27          2    26.00       0.000    
    69 HO_1.28          2    27.00       0.000    
    70 HO_1.29          2    28.00       0.000    
    71 HO_1.30          2    29.00       0.000    
    72 HO_1.31          2    30.00       0.000    
    73 HO_1.32          2    31.00       0.000    
    74 HO_1.33          2    32.00       0.000    
    75 HO_1.34          2    33.00       0.000    
    76 HO_1.35          2    34.00       0.000    
    77 HO_1.36          2    35.00       0.000    
    78 HO_1.37          2    36.00       0.000    
    79 HO_1.38          2    37.00       0.000    
    80 HO_1.39          2    38.00       0.000    
    81 HO_1.40          2    39.00       0.000    
    82 HO_1.41          2    40.00       0.000    
 
    83 HO_2           -41    0.000       0.000    
  TRANSIENT DATA AT THIS LOCATION, ITT =   1
    83 HO_2.1           2    0.000       0.000    
    84 HO_2.2           2    1.000       0.000    
    85 HO_2.3           2    2.000       0.000    
    86 HO_2.4           2    3.000       0.000    
    87 HO_2.5           2    4.000       0.000    
    88 HO_2.6           2    5.000       0.000    
    89 HO_2.7           2    6.000       0.000    
    90 HO_2.8           2    7.000       0.000    
    91 HO_2.9           2    8.000       0.000    
    92 HO_2.10          2    9.000       0.000    
    93 HO_2.11          2    10.00       0.000    
    94 HO_2.12          2    11.00       0.000    
    95 HO_2.13          2    12.00       0.000    
    96 HO_2.14          2    13.00       0.000    
    97 HO_2.15          2    14.00       0.000    
    98 HO_2.16          2    15.00       0.000    
    99 HO_2.17          2    16.00       0.000    
   100 HO_2.18          2    17.00       0.000    
   101 HO_2.19          2    18.00       0.000    
   102 HO_2.20          2    19.00       0.000    
   103 HO_2.21          2    20.00       0.000    
   104 HO_2.22          2    21.00       0.000    
   105 HO_2.23          2    22.00       0.000    
   106 HO_2.24          2    23.00       0.000    
   107 HO_2.25          2    24.00       0.000    
   108 HO_2.26          2    25.00       0.000    
   109 HO_2.27          2    26.00       0.000    
   110 HO_2.28          2    27.00       0.000    
   111 HO_2.29          2    28.00       0.000    
   112 HO_2.30          2    29.00       0.000    
   113 HO_2.31          2    30.00       0.000    
   114 HO_2.32          2    31.00       0.000    
   115 HO_2.33          2    32.00       0.000    
   116 HO_2.34          2    33.00       0.000    
   117 HO_2.35          2    34.00       0.000    
   118 HO_2.36          2    35.00       0.000    
   119 HO_2.37          2    36.00       0.000    
   120 HO_2.38          2    37.00       0.000    
   121 HO_2.39          2    38.00       0.000    
   122 HO_2.40          2    39.00       0.000    
   123 HO_2.41          2    40.00       0.000    
 
   124 HO_3           -41    0.000       0.000    
  TRANSIENT DATA AT THIS LOCATION, ITT =   1
   124 HO_3.1           2    0.000       0.000    
   125 HO_3.2           2    1.000       0.000    
   126 HO_3.3           2    2.000       0.000    
   127 HO_3.4           2    3.000       0.000    
   128 HO_3.5           2    4.000       0.000    
   129 HO_3.6           2    5.000       0.000    
   130 HO_3.7           2    6.000       0.000    
   131 HO_3.8           2    7.000       0.000    
   132 HO_3.9           2    8.000       0.000    
   133 HO_3.10          2    9.000       0.000    
   134 HO_3.11          2    10.00       0.000    
   135 HO_3.12          2    11.00       0.000    
   136 HO_3.13          2    12.00       0.000    
   137 HO_3.14          2    13.00       0.000    
   138 HO_3.15          2    14.00       0.000    
   139 HO_3.16          2    15.00       0.000    
   140 HO_3.17          2    16.00       0.000    
   141 HO_3.18          2    17.00       0.000    
   142 HO_3.19          2    18.00       0.000    
   143 HO_3.20          2    19.00       0.000    
   144 HO_3.21          2    20.00       0.000    
   145 HO_3.22          2    21.00       0.000    
   146 HO_3.23          2    22.00       0.000    
   147 HO_3.24          2    23.00       0.000    
   148 HO_3.25          2    24.00       0.000    
   149 HO_3.26          2    25.00       0.000    
   150 HO_3.27          2    26.00       0.000    
   151 HO_3.28          2    27.00       0.000    
   152 HO_3.29          2    28.00       0.000    
   153 HO_3.30          2    29.00       0.000    
   154 HO_3.31          2    30.00       0.000    
   155 HO_3.32          2    31.00       0.000    
   156 HO_3.33          2    32.00       0.000    
   157 HO_3.34          2    33.00       0.000    
   158 HO_3.35          2    34.00       0.000    
   159 HO_3.36          2    35.00       0.000    
   160 HO_3.37          2    36.00       0.000    
   161 HO_3.38          2    37.00       0.000    
   162 HO_3.39          2    38.00       0.000    
   163 HO_3.40          2    39.00       0.000    
   164 HO_3.41          2    40.00       0.000    
 
   165 HO_4           -41    0.000       0.000    
  TRANSIENT DATA AT THIS LOCATION, ITT =   1
   165 HO_4.1           2    0.000       0.000    
   166 HO_4.2           2    1.000       0.000    
   167 HO_4.3           2    2.000       0.000    
   168 HO_4.4           2    3.000       0.000    
   169 HO_4.5           2    4.000       0.000    
   170 HO_4.6           2    5.000       0.000    
   171 HO_4.7           2    6.000       0.000    
   172 HO_4.8           2    7.000       0.000    
   173 HO_4.9           2    8.000       0.000    
   174 HO_4.10          2    9.000       0.000    
   175 HO_4.11          2    10.00       0.000    
   176 HO_4.12          2    11.00       0.000    
   177 HO_4.13          2    12.00       0.000    
   178 HO_4.14          2    13.00       0.000    
   179 HO_4.15          2    14.00       0.000    
   180 HO_4.16          2    15.00       0.000    
   181 HO_4.17          2    16.00       0.000    
   182 HO_4.18          2    17.00       0.000    
   183 HO_4.19          2    18.00       0.000    
   184 HO_4.20          2    19.00       0.000    
   185 HO_4.21          2    20.00       0.000    
   186 HO_4.22          2    21.00       0.000    
   187 HO_4.23          2    22.00       0.000    
   188 HO_4.24          2    23.00       0.000    
   189 HO_4.25          2    24.00       0.000    
   190 HO_4.26          2    25.00       0.000    
   191 HO_4.27          2    26.00       0.000    
   192 HO_4.28          2    27.00       0.000    
   193 HO_4.29          2    28.00       0.000    
   194 HO_4.30          2    29.00       0.000    
   195 HO_4.31          2    30.00       0.000    
   196 HO_4.32          2    31.00       0.000    
   197 HO_4.33          2    32.00       0.000    
   198 HO_4.34          2    33.00       0.000    
   199 HO_4.35          2    34.00       0.000    
   200 HO_4.36          2    35.00       0.000    
   201 HO_4.37          2    36.00       0.000    
   202 HO_4.38          2    37.00       0.000    
   203 HO_4.39          2    38.00       0.000    
   204 HO_4.40          2    39.00       0.000    
   205 HO_4.41          2    40.00       0.000    
 
   206 HO_5           -41    0.000       0.000    
  TRANSIENT DATA AT THIS LOCATION, ITT =   1
   206 HO_5.1           2    0.000       0.000    
   207 HO_5.2           2    1.000       0.000    
   208 HO_5.3           2    2.000       0.000    
   209 HO_5.4           2    3.000       0.000    
   210 HO_5.5           2    4.000       0.000    
   211 HO_5.6           2    5.000       0.000    
   212 HO_5.7           2    6.000       0.000    
   213 HO_5.8           2    7.000       0.000    
   214 HO_5.9           2    8.000       0.000    
   215 HO_5.10          2    9.000       0.000    
   216 HO_5.11          2    10.00       0.000    
   217 HO_5.12          2    11.00       0.000    
   218 HO_5.13          2    12.00       0.000    
   219 HO_5.14          2    13.00       0.000    
   220 HO_5.15          2    14.00       0.000    
   221 HO_5.16          2    15.00       0.000    
   222 HO_5.17          2    16.00       0.000    
   223 HO_5.18          2    17.00       0.000    
   224 HO_5.19          2    18.00       0.000    
   225 HO_5.20          2    19.00       0.000    
   226 HO_5.21          2    20.00       0.000    
   227 HO_5.22          2    21.00       0.000    
   228 HO_5.23          2    22.00       0.000    
   229 HO_5.24          2    23.00       0.000    
   230 HO_5.25          2    24.00       0.000    
   231 HO_5.26          2    25.00       0.000    
   232 HO_5.27          2    26.00       0.000    
   233 HO_5.28          2    27.00       0.000    
   234 HO_5.29          2    28.00       0.000    
   235 HO_5.30          2    29.00       0.000    
   236 HO_5.31          2    30.00       0.000    
   237 HO_5.32          2    31.00       0.000    
   238 HO_5.33          2    32.00       0.000    
   239 HO_5.34          2    33.00       0.000    
   240 HO_5.35          2    34.00       0.000    
   241 HO_5.36          2    35.00       0.000    
   242 HO_5.37          2    36.00       0.000    
   243 HO_5.38          2    37.00       0.000    
   244 HO_5.39          2    38.00       0.000    
   245 HO_5.40          2    39.00       0.000    
   246 HO_5.41          2    40.00       0.000    
 
   247 HO_6           -41    0.000       0.000    
  TRANSIENT DATA AT THIS LOCATION, ITT =   1
   247 HO_6.1           2    0.000       0.000    
   248 HO_6.2           2    1.000       0.000    
   249 HO_6.3           2    2.000       0.000    
   250 HO_6.4           2    3.000       0.000    
   251 HO_6.5           2    4.000       0.000    
   252 HO_6.6           2    5.000       0.000    
   253 HO_6.7           2    6.000       0.000    
   254 HO_6.8           2    7.000       0.000    
   255 HO_6.9           2    8.000       0.000    
   256 HO_6.10          2    9.000       0.000    
   257 HO_6.11          2    10.00       0.000    
   258 HO_6.12          2    11.00       0.000    
   259 HO_6.13          2    12.00       0.000    
   260 HO_6.14          2    13.00       0.000    
   261 HO_6.15          2    14.00       0.000    
   262 HO_6.16          2    15.00       0.000    
   263 HO_6.17          2    16.00       0.000    
   264 HO_6.18          2    17.00       0.000    
   265 HO_6.19          2    18.00       0.000    
   266 HO_6.20          2    19.00       0.000    
   267 HO_6.21          2    20.00       0.000    
   268 HO_6.22          2    21.00       0.000    
   269 HO_6.23          2    22.00       0.000    
   270 HO_6.24          2    23.00       0.000    
   271 HO_6.25          2    24.00       0.000    
   272 HO_6.26          2    25.00       0.000    
   273 HO_6.27          2    26.00       0.000    
   274 HO_6.28          2    27.00       0.000    
   275 HO_6.29          2    28.00       0.000    
   276 HO_6.30          2    29.00       0.000    
   277 HO_6.31          2    30.00       0.000    
   278 HO_6.32          2    31.00       0.000    
   279 HO_6.33          2    32.00       0.000    
   280 HO_6.34          2    33.00       0.000    
   281 HO_6.35          2    34.00       0.000    
   282 HO_6.36          2    35.00       0.000    
   283 HO_6.37          2    36.00       0.000    
   284 HO_6.38          2    37.00       0.000    
   285 HO_6.39          2    38.00       0.000    
   286 HO_6.40          2    39.00       0.000    
   287 HO_6.41          2    40.00       0.000    
 
   288 HO_7           -41    0.000       0.000    
  TRANSIENT DATA AT THIS LOCATION, ITT =   1
   288 HO_7.1           2    0.000       0.000    
   289 HO_7.2           2    1.000       0.000    
   290 HO_7.3           2    2.000       0.000    
   291 HO_7.4           2    3.000       0.000    
   292 HO_7.5           2    4.000       0.000    
   293 HO_7.6           2    5.000       0.000    
   294 HO_7.7           2    6.000       0.000    
   295 HO_7.8           2    7.000       0.000    
   296 HO_7.9           2    8.000       0.000    
   297 HO_7.10          2    9.000       0.000    
   298 HO_7.11          2    10.00       0.000    
   299 HO_7.12          2    11.00       0.000    
   300 HO_7.13          2    12.00       0.000    
   301 HO_7.14          2    13.00       0.000    
   302 HO_7.15          2    14.00       0.000    
   303 HO_7.16          2    15.00       0.000    
   304 HO_7.17          2    16.00       0.000    
   305 HO_7.18          2    17.00       0.000    
   306 HO_7.19          2    18.00       0.000    
   307 HO_7.20          2    19.00       0.000    
   308 HO_7.21          2    20.00       0.000    
   309 HO_7.22          2    21.00       0.000    
   310 HO_7.23          2    22.00       0.000    
   311 HO_7.24          2    23.00       0.000    
   312 HO_7.25          2    24.00       0.000    
   313 HO_7.26          2    25.00       0.000    
   314 HO_7.27          2    26.00       0.000    
   315 HO_7.28          2    27.00       0.000    
   316 HO_7.29          2    28.00       0.000    
   317 HO_7.30          2    29.00       0.000    
   318 HO_7.31          2    30.00       0.000    
   319 HO_7.32          2    31.00       0.000    
   320 HO_7.33          2    32.00       0.000    
   321 HO_7.34          2    33.00       0.000    
   322 HO_7.35          2    34.00       0.000    
   323 HO_7.36          2    35.00       0.000    
   324 HO_7.37          2    36.00       0.000    
   325 HO_7.38          2    37.00       0.000    
   326 HO_7.39          2    38.00       0.000    
   327 HO_7.40          2    39.00       0.000    
   328 HO_7.41          2    40.00       0.000    
 
   329 HO_8           -41    0.000       0.000    
  TRANSIENT DATA AT THIS LOCATION, ITT =   1
   329 HO_8.1           2    0.000       0.000    
   330 HO_8.2           2    1.000       0.000    
   331 HO_8.3           2    2.000       0.000    
   332 HO_8.4           2    3.000       0.000    
   333 HO_8.5           2    4.000       0.000    
   334 HO_8.6           2    5.000       0.000    
   335 HO_8.7           2    6.000       0.000    
   336 HO_8.8           2    7.000       0.000    
   337 HO_8.9           2    8.000       0.000    
   338 HO_8.10          2    9.000       0.000    
   339 HO_8.11          2    10.00       0.000    
   340 HO_8.12          2    11.00       0.000    
   341 HO_8.13          2    12.00       0.000    
   342 HO_8.14          2    13.00       0.000    
   343 HO_8.15          2    14.00       0.000    
   344 HO_8.16          2    15.00       0.000    
   345 HO_8.17          2    16.00       0.000    
   346 HO_8.18          2    17.00       0.000    
   347 HO_8.19          2    18.00       0.000    
   348 HO_8.20          2    19.00       0.000    
   349 HO_8.21          2    20.00       0.000    
   350 HO_8.22          2    21.00       0.000    
   351 HO_8.23          2    22.00       0.000    
   352 HO_8.24          2    23.00       0.000    
   353 HO_8.25          2    24.00       0.000    
   354 HO_8.26          2    25.00       0.000    
   355 HO_8.27          2    26.00       0.000    
   356 HO_8.28          2    27.00       0.000    
   357 HO_8.29          2    28.00       0.000    
   358 HO_8.30          2    29.00       0.000    
   359 HO_8.31          2    30.00       0.000    
   360 HO_8.32          2    31.00       0.000    
   361 HO_8.33          2    32.00       0.000    
   362 HO_8.34          2    33.00       0.000    
   363 HO_8.35          2    34.00       0.000    
   364 HO_8.36          2    35.00       0.000    
   365 HO_8.37          2    36.00       0.000    
   366 HO_8.38          2    37.00       0.000    
   367 HO_8.39          2    38.00       0.000    
   368 HO_8.40          2    39.00       0.000    
   369 HO_8.41          2    40.00       0.000    
 
   370 HO_9           -41    0.000       0.000    
  TRANSIENT DATA AT THIS LOCATION, ITT =   1
   370 HO_9.1           2    0.000       0.000    
   371 HO_9.2           2    1.000       0.000    
   372 HO_9.3           2    2.000       0.000    
   373 HO_9.4           2    3.000       0.000    
   374 HO_9.5           2    4.000       0.000    
   375 HO_9.6           2    5.000       0.000    
   376 HO_9.7           2    6.000       0.000    
   377 HO_9.8           2    7.000       0.000    
   378 HO_9.9           2    8.000       0.000    
   379 HO_9.10          2    9.000       0.000    
   380 HO_9.11          2    10.00       0.000    
   381 HO_9.12          2    11.00       0.000    
   382 HO_9.13          2    12.00       0.000    
   383 HO_9.14          2    13.00       0.000    
   384 HO_9.15          2    14.00       0.000    
   385 HO_9.16          2    15.00       0.000    
   386 HO_9.17          2    16.00       0.000    
   387 HO_9.18          2    17.00       0.000    
   388 HO_9.19          2    18.00       0.000    
   389 HO_9.20          2    19.00       0.000    
   390 HO_9.21          2    20.00       0.000    
   391 HO_9.22          2    21.00       0.000    
   392 HO_9.23          2    22.00       0.000    
   393 HO_9.24          2    23.00       0.000    
   394 HO_9.25          2    24.00       0.000    
   395 HO_9.26          2    25.00       0.000    
   396 HO_9.27          2    26.00       0.000    
   397 HO_9.28          2    27.00       0.000    
   398 HO_9.29          2    28.00       0.000    
   399 HO_9.30          2    29.00       0.000    
   400 HO_9.31          2    30.00       0.000    
   401 HO_9.32          2    31.00       0.000    
   402 HO_9.33          2    32.00       0.000    
   403 HO_9.34          2    33.00       0.000    
   404 HO_9.35          2    34.00       0.000    
   405 HO_9.36          2    35.00       0.000    
   406 HO_9.37          2    36.00       0.000    
   407 HO_9.38          2    37.00       0.000    
   408 HO_9.39          2    38.00       0.000    
   409 HO_9.40          2    39.00       0.000    
   410 HO_9.41          2    40.00       0.000    
 
   411 HO_10          -41    0.000       0.000    
  TRANSIENT DATA AT THIS LOCATION, ITT =   1
   411 HO_10.1          2    0.000       0.000    
   412 HO_10.2          2    1.000       0.000    
   413 HO_10.3          2    2.000       0.000    
   414 HO_10.4          2    3.000       0.000    
   415 HO_10.5          2    4.000       0.000    
   416 HO_10.6          2    5.000       0.000    
   417 HO_10.7          2    6.000       0.000    
   418 HO_10.8          2    7.000       0.000    
   419 HO_10.9          2    8.000       0.000    
   420 HO_10.10         2    9.000       0.000    
   421 HO_10.11         2    10.00       0.000    
   422 HO_10.12         2    11.00       0.000    
   423 HO_10.13         2    12.00       0.000    
   424 HO_10.14         2    13.00       0.000    
   425 HO_10.15         2    14.00       0.000    
   426 HO_10.16         2    15.00       0.000    
   427 HO_10.17         2    16.00       0.000    
   428 HO_10.18         2    17.00       0.000    
   429 HO_10.19         2    18.00       0.000    
   430 HO_10.20         2    19.00       0.000    
   431 HO_10.21         2    20.00       0.000    
   432 HO_10.22         2    21.00       0.000    
   433 HO_10.23         2    22.00       0.000    
   434 HO_10.24         2    23.00       0.000    
   435 HO_10.25         2    24.00       0.000    
   436 HO_10.26         2    25.00       0.000    
   437 HO_10.27         2    26.00       0.000    
   438 HO_10.28         2    27.00       0.000    
   439 HO_10.29         2    28.00       0.000    
   440 HO_10.30         2    29.00       0.000    
   441 HO_10.31         2    30.00       0.000    
   442 HO_10.32         2    31.00       0.000    
   443 HO_10.33         2    32.00       0.000    
   444 HO_10.34         2    33.00       0.000    
   445 HO_10.35         2    34.00       0.000    
   446 HO_10.36         2    35.00       0.000    
   447 HO_10.37         2    36.00       0.000    
   448 HO_10.38         2    37.00       0.000    
   449 HO_10.39         2    38.00       0.000    
   450 HO_10.40         2    39.00       0.000    
   451 HO_10.41         2    40.00       0.000    
 
   452 HO_11          -41    0.000       0.000    
  TRANSIENT DATA AT THIS LOCATION, ITT =   1
   452 HO_11.1          2    0.000       0.000    
   453 HO_11.2          2    1.000       0.000    
   454 HO_11.3          2    2.000       0.000    
   455 HO_11.4          2    3.000       0.000    
   456 HO_11.5          2    4.000       0.000    
   457 HO_11.6          2    5.000       0.000    
   458 HO_11.7          2    6.000       0.000    
   459 HO_11.8          2    7.000       0.000    
   460 HO_11.9          2    8.000       0.000    
   461 HO_11.10         2    9.000       0.000    
   462 HO_11.11         2    10.00       0.000    
   463 HO_11.12         2    11.00       0.000    
   464 HO_11.13         2    12.00       0.000    
   465 HO_11.14         2    13.00       0.000    
   466 HO_11.15         2    14.00       0.000    
   467 HO_11.16         2    15.00       0.000    
   468 HO_11.17         2    16.00       0.000    
   469 HO_11.18         2    17.00       0.000    
   470 HO_11.19         2    18.00       0.000    
   471 HO_11.20         2    19.00       0.000    
   472 HO_11.21         2    20.00       0.000    
   473 HO_11.22         2    21.00       0.000    
   474 HO_11.23         2    22.00       0.000    
   475 HO_11.24         2    23.00       0.000    
   476 HO_11.25         2    24.00       0.000    
   477 HO_11.26         2    25.00       0.000    
   478 HO_11.27         2    26.00       0.000    
   479 HO_11.28         2    27.00       0.000    
   480 HO_11.29         2    28.00       0.000    
   481 HO_11.30         2    29.00       0.000    
   482 HO_11.31         2    30.00       0.000    
   483 HO_11.32         2    31.00       0.000    
   484 HO_11.33         2    32.00       0.000    
   485 HO_11.34         2    33.00       0.000    
   486 HO_11.35         2    34.00       0.000    
   487 HO_11.36         2    35.00       0.000    
   488 HO_11.37         2    36.00       0.000    
   489 HO_11.38         2    37.00       0.000    
   490 HO_11.39         2    38.00       0.000    
   491 HO_11.40         2    39.00       0.000    
   492 HO_11.41         2    40.00       0.000    
 
   493 HO_12          -41    0.000       0.000    
  TRANSIENT DATA AT THIS LOCATION, ITT =   1
   493 HO_12.1          2    0.000       0.000    
   494 HO_12.2          2    1.000       0.000    
   495 HO_12.3          2    2.000       0.000    
   496 HO_12.4          2    3.000       0.000    
   497 HO_12.5          2    4.000       0.000    
   498 HO_12.6          2    5.000       0.000    
   499 HO_12.7          2    6.000       0.000    
   500 HO_12.8          2    7.000       0.000    
   501 HO_12.9          2    8.000       0.000    
   502 HO_12.10         2    9.000       0.000    
   503 HO_12.11         2    10.00       0.000    
   504 HO_12.12         2    11.00       0.000    
   505 HO_12.13         2    12.00       0.000    
   506 HO_12.14         2    13.00       0.000    
   507 HO_12.15         2    14.00       0.000    
   508 HO_12.16         2    15.00       0.000    
   509 HO_12.17         2    16.00       0.000    
   510 HO_12.18         2    17.00       0.000    
   511 HO_12.19         2    18.00       0.000    
   512 HO_12.20         2    19.00       0.000    
   513 HO_12.21         2    20.00       0.000    
   514 HO_12.22         2    21.00       0.000    
   515 HO_12.23         2    22.00       0.000    
   516 HO_12.24         2    23.00       0.000    
   517 HO_12.25         2    24.00       0.000    
   518 HO_12.26         2    25.00       0.000    
   519 HO_12.27         2    26.00       0.000    
   520 HO_12.28         2    27.00       0.000    
   521 HO_12.29         2    28.00       0.000    
   522 HO_12.30         2    29.00       0.000    
   523 HO_12.31         2    30.00       0.000    
   524 HO_12.32         2    31.00       0.000    
   525 HO_12.33         2    32.00       0.000    
   526 HO_12.34         2    33.00       0.000    
   527 HO_12.35         2    34.00       0.000    
   528 HO_12.36         2    35.00       0.000    
   529 HO_12.37         2    36.00       0.000    
   530 HO_12.38         2    37.00       0.000    
   531 HO_12.39         2    38.00       0.000    
   532 HO_12.40         2    39.00       0.000    
   533 HO_12.41         2    40.00       0.000    
 
   534 HO_13          -41    0.000       0.000    
  TRANSIENT DATA AT THIS LOCATION, ITT =   1
   534 HO_13.1          2    0.000       0.000    
   535 HO_13.2          2    1.000       0.000    
   536 HO_13.3          2    2.000       0.000    
   537 HO_13.4          2    3.000       0.000    
   538 HO_13.5          2    4.000       0.000    
   539 HO_13.6          2    5.000       0.000    
   540 HO_13.7          2    6.000       0.000    
   541 HO_13.8          2    7.000       0.000    
   542 HO_13.9          2    8.000       0.000    
   543 HO_13.10         2    9.000       0.000    
   544 HO_13.11         2    10.00       0.000    
   545 HO_13.12         2    11.00       0.000    
   546 HO_13.13         2    12.00       0.000    
   547 HO_13.14         2    13.00       0.000    
   548 HO_13.15         2    14.00       0.000    
   549 HO_13.16         2    15.00       0.000    
   550 HO_13.17         2    16.00       0.000    
   551 HO_13.18         2    17.00       0.000    
   552 HO_13.19         2    18.00       0.000    
   553 HO_13.20         2    19.00       0.000    
   554 HO_13.21         2    20.00       0.000    
   555 HO_13.22         2    21.00       0.000    
   556 HO_13.23         2    22.00       0.000    
   557 HO_13.24         2    23.00       0.000    
   558 HO_13.25         2    24.00       0.000    
   559 HO_13.26         2    25.00       0.000    
   560 HO_13.27         2    26.00       0.000    
   561 HO_13.28         2    27.00       0.000    
   562 HO_13.29         2    28.00       0.000    
   563 HO_13.30         2    29.00       0.000    
   564 HO_13.31         2    30.00       0.000    
   565 HO_13.32         2    31.00       0.000    
   566 HO_13.33         2    32.00       0.000    
   567 HO_13.34         2    33.00       0.000    
   568 HO_13.35         2    34.00       0.000    
   569 HO_13.36         2    35.00       0.000    
   570 HO_13.37         2    36.00       0.000    
   571 HO_13.38         2    37.00       0.000    
   572 HO_13.39         2    38.00       0.000    
   573 HO_13.40         2    39.00       0.000    
   574 HO_13.41         2    40.00       0.000    
 
   575 HO_14          -41    0.000       0.000    
  TRANSIENT DATA AT THIS LOCATION, ITT =   1
   575 HO_14.1          2    0.000       0.000    
   576 HO_14.2          2    1.000       0.000    
   577 HO_14.3          2    2.000       0.000    
   578 HO_14.4          2    3.000       0.000    
   579 HO_14.5          2    4.000       0.000    
   580 HO_14.6          2    5.000       0.000    
   581 HO_14.7          2    6.000       0.000    
   582 HO_14.8          2    7.000       0.000    
   583 HO_14.9          2    8.000       0.000    
   584 HO_14.10         2    9.000       0.000    
   585 HO_14.11         2    10.00       0.000    
   586 HO_14.12         2    11.00       0.000    
   587 HO_14.13         2    12.00       0.000    
   588 HO_14.14         2    13.00       0.000    
   589 HO_14.15         2    14.00       0.000    
   590 HO_14.16         2    15.00       0.000    
   591 HO_14.17         2    16.00       0.000    
   592 HO_14.18         2    17.00       0.000    
   593 HO_14.19         2    18.00       0.000    
   594 HO_14.20         2    19.00       0.000    
   595 HO_14.21         2    20.00       0.000    
   596 HO_14.22         2    21.00       0.000    
   597 HO_14.23         2    22.00       0.000    
   598 HO_14.24         2    23.00       0.000    
   599 HO_14.25         2    24.00       0.000    
   600 HO_14.26         2    25.00       0.000    
   601 HO_14.27         2    26.00       0.000    
   602 HO_14.28         2    27.00       0.000    
   603 HO_14.29         2    28.00       0.000    
   604 HO_14.30         2    29.00       0.000    
   605 HO_14.31         2    30.00       0.000    
   606 HO_14.32         2    31.00       0.000    
   607 HO_14.33         2    32.00       0.000    
   608 HO_14.34         2    33.00       0.000    
   609 HO_14.35         2    34.00       0.000    
   610 HO_14.36         2    35.00       0.000    
   611 HO_14.37         2    36.00       0.000    
   612 HO_14.38         2    37.00       0.000    
   613 HO_14.39         2    38.00       0.000    
   614 HO_14.40         2    39.00       0.000    
   615 HO_14.41         2    40.00       0.000    
 
   616 HO_15          -41    0.000       0.000    
  TRANSIENT DATA AT THIS LOCATION, ITT =   1
   616 HO_15.1          2    0.000       0.000    
   617 HO_15.2          2    1.000       0.000    
   618 HO_15.3          2    2.000       0.000    
   619 HO_15.4          2    3.000       0.000    
   620 HO_15.5          2    4.000       0.000    
   621 HO_15.6          2    5.000       0.000    
   622 HO_15.7          2    6.000       0.000    
   623 HO_15.8          2    7.000       0.000    
   624 HO_15.9          2    8.000       0.000    
   625 HO_15.10         2    9.000       0.000    
   626 HO_15.11         2    10.00       0.000    
   627 HO_15.12         2    11.00       0.000    
   628 HO_15.13         2    12.00       0.000    
   629 HO_15.14         2    13.00       0.000    
   630 HO_15.15         2    14.00       0.000    
   631 HO_15.16         2    15.00       0.000    
   632 HO_15.17         2    16.00       0.000    
   633 HO_15.18         2    17.00       0.000    
   634 HO_15.19         2    18.00       0.000    
   635 HO_15.20         2    19.00       0.000    
   636 HO_15.21         2    20.00       0.000    
   637 HO_15.22         2    21.00       0.000    
   638 HO_15.23         2    22.00       0.000    
   639 HO_15.24         2    23.00       0.000    
   640 HO_15.25         2    24.00       0.000    
   641 HO_15.26         2    25.00       0.000    
   642 HO_15.27         2    26.00       0.000    
   643 HO_15.28         2    27.00       0.000    
   644 HO_15.29         2    28.00       0.000    
   645 HO_15.30         2    29.00       0.000    
   646 HO_15.31         2    30.00       0.000    
   647 HO_15.32         2    31.00       0.000    
   648 HO_15.33         2    32.00       0.000    
   649 HO_15.34         2    33.00       0.000    
   650 HO_15.35         2    34.00       0.000    
   651 HO_15.36         2    35.00       0.000    
   652 HO_15.37         2    36.00       0.000    
   653 HO_15.38         2    37.00       0.000    
   654 HO_15.39         2    38.00       0.000    
   655 HO_15.40         2    39.00       0.000    
   656 HO_15.41         2    40.00       0.000    
 
   657 HO_16          -41    0.000       0.000    
  TRANSIENT DATA AT THIS LOCATION, ITT =   1
   657 HO_16.1          2    0.000       0.000    
   658 HO_16.2          2    1.000       0.000    
   659 HO_16.3          2    2.000       0.000    
   660 HO_16.4          2    3.000       0.000    
   661 HO_16.5          2    4.000       0.000    
   662 HO_16.6          2    5.000       0.000    
   663 HO_16.7          2    6.000       0.000    
   664 HO_16.8          2    7.000       0.000    
   665 HO_16.9          2    8.000       0.000    
   666 HO_16.10         2    9.000       0.000    
   667 HO_16.11         2    10.00       0.000    
   668 HO_16.12         2    11.00       0.000    
   669 HO_16.13         2    12.00       0.000    
   670 HO_16.14         2    13.00       0.000    
   671 HO_16.15         2    14.00       0.000    
   672 HO_16.16         2    15.00       0.000    
   673 HO_16.17         2    16.00       0.000    
   674 HO_16.18         2    17.00       0.000    
   675 HO_16.19         2    18.00       0.000    
   676 HO_16.20         2    19.00       0.000    
   677 HO_16.21         2    20.00       0.000    
   678 HO_16.22         2    21.00       0.000    
   679 HO_16.23         2    22.00       0.000    
   680 HO_16.24         2    23.00       0.000    
   681 HO_16.25         2    24.00       0.000    
   682 HO_16.26         2    25.00       0.000    
   683 HO_16.27         2    26.00       0.000    
   684 HO_16.28         2    27.00       0.000    
   685 HO_16.29         2    28.00       0.000    
   686 HO_16.30         2    29.00       0.000    
   687 HO_16.31         2    30.00       0.000    
   688 HO_16.32         2    31.00       0.000    
   689 HO_16.33         2    32.00       0.000    
   690 HO_16.34         2    33.00       0.000    
   691 HO_16.35         2    34.00       0.000    
   692 HO_16.36         2    35.00       0.000    
   693 HO_16.37         2    36.00       0.000    
   694 HO_16.38         2    37.00       0.000    
   695 HO_16.39         2    38.00       0.000    
   696 HO_16.40         2    39.00       0.000    
   697 HO_16.41         2    40.00       0.000    
 
   698 HO_17          -41    0.000       0.000    
  TRANSIENT DATA AT THIS LOCATION, ITT =   1
   698 HO_17.1          2    0.000       0.000    
   699 HO_17.2          2    1.000       0.000    
   700 HO_17.3          2    2.000       0.000    
   701 HO_17.4          2    3.000       0.000    
   702 HO_17.5          2    4.000       0.000    
   703 HO_17.6          2    5.000       0.000    
   704 HO_17.7          2    6.000       0.000    
   705 HO_17.8          2    7.000       0.000    
   706 HO_17.9          2    8.000       0.000    
   707 HO_17.10         2    9.000       0.000    
   708 HO_17.11         2    10.00       0.000    
   709 HO_17.12         2    11.00       0.000    
   710 HO_17.13         2    12.00       0.000    
   711 HO_17.14         2    13.00       0.000    
   712 HO_17.15         2    14.00       0.000    
   713 HO_17.16         2    15.00       0.000    
   714 HO_17.17         2    16.00       0.000    
   715 HO_17.18         2    17.00       0.000    
   716 HO_17.19         2    18.00       0.000    
   717 HO_17.20         2    19.00       0.000    
   718 HO_17.21         2    20.00       0.000    
   719 HO_17.22         2    21.00       0.000    
   720 HO_17.23         2    22.00       0.000    
   721 HO_17.24         2    23.00       0.000    
   722 HO_17.25         2    24.00       0.000    
   723 HO_17.26         2    25.00       0.000    
   724 HO_17.27         2    26.00       0.000    
   725 HO_17.28         2    27.00       0.000    
   726 HO_17.29         2    28.00       0.000    
   727 HO_17.30         2    29.00       0.000    
   728 HO_17.31         2    30.00       0.000    
   729 HO_17.32         2    31.00       0.000    
   730 HO_17.33         2    32.00       0.000    
   731 HO_17.34         2    33.00       0.000    
   732 HO_17.35         2    34.00       0.000    
   733 HO_17.36         2    35.00       0.000    
   734 HO_17.37         2    36.00       0.000    
   735 HO_17.38         2    37.00       0.000    
   736 HO_17.39         2    38.00       0.000    
   737 HO_17.40         2    39.00       0.000    
   738 HO_17.41         2    40.00       0.000    
 
   739 HO_18          -41    0.000       0.000    
  TRANSIENT DATA AT THIS LOCATION, ITT =   1
   739 HO_18.1          2    0.000       0.000    
   740 HO_18.2          2    1.000       0.000    
   741 HO_18.3          2    2.000       0.000    
   742 HO_18.4          2    3.000       0.000    
   743 HO_18.5          2    4.000       0.000    
   744 HO_18.6          2    5.000       0.000    
   745 HO_18.7          2    6.000       0.000    
   746 HO_18.8          2    7.000       0.000    
   747 HO_18.9          2    8.000       0.000    
   748 HO_18.10         2    9.000       0.000    
   749 HO_18.11         2    10.00       0.000    
   750 HO_18.12         2    11.00       0.000    
   751 HO_18.13         2    12.00       0.000    
   752 HO_18.14         2    13.00       0.000    
   753 HO_18.15         2    14.00       0.000    
   754 HO_18.16         2    15.00       0.000    
   755 HO_18.17         2    16.00       0.000    
   756 HO_18.18         2    17.00       0.000    
   757 HO_18.19         2    18.00       0.000    
   758 HO_18.20         2    19.00       0.000    
   759 HO_18.21         2    20.00       0.000    
   760 HO_18.22         2    21.00       0.000    
   761 HO_18.23         2    22.00       0.000    
   762 HO_18.24         2    23.00       0.000    
   763 HO_18.25         2    24.00       0.000    
   764 HO_18.26         2    25.00       0.000    
   765 HO_18.27         2    26.00       0.000    
   766 HO_18.28         2    27.00       0.000    
   767 HO_18.29         2    28.00       0.000    
   768 HO_18.30         2    29.00       0.000    
   769 HO_18.31         2    30.00       0.000    
   770 HO_18.32         2    31.00       0.000    
   771 HO_18.33         2    32.00       0.000    
   772 HO_18.34         2    33.00       0.000    
   773 HO_18.35         2    34.00       0.000    
   774 HO_18.36         2    35.00       0.000    
   775 HO_18.37         2    36.00       0.000    
   776 HO_18.38         2    37.00       0.000    
   777 HO_18.39         2    38.00       0.000    
   778 HO_18.40         2    39.00       0.000    
   779 HO_18.41         2    40.00       0.000    
 
   780 HO_19          -41    0.000       0.000    
  TRANSIENT DATA AT THIS LOCATION, ITT =   1
   780 HO_19.1          2    0.000       0.000    
   781 HO_19.2          2    1.000       0.000    
   782 HO_19.3          2    2.000       0.000    
   783 HO_19.4          2    3.000       0.000    
   784 HO_19.5          2    4.000       0.000    
   785 HO_19.6          2    5.000       0.000    
   786 HO_19.7          2    6.000       0.000    
   787 HO_19.8          2    7.000       0.000    
   788 HO_19.9          2    8.000       0.000    
   789 HO_19.10         2    9.000       0.000    
   790 HO_19.11         2    10.00       0.000    
   791 HO_19.12         2    11.00       0.000    
   792 HO_19.13         2    12.00       0.000    
   793 HO_19.14         2    13.00       0.000    
   794 HO_19.15         2    14.00       0.000    
   795 HO_19.16         2    15.00       0.000    
   796 HO_19.17         2    16.00       0.000    
   797 HO_19.18         2    17.00       0.000    
   798 HO_19.19         2    18.00       0.000    
   799 HO_19.20         2    19.00       0.000    
   800 HO_19.21         2    20.00       0.000    
   801 HO_19.22         2    21.00       0.000    
   802 HO_19.23         2    22.00       0.000    
   803 HO_19.24         2    23.00       0.000    
   804 HO_19.25         2    24.00       0.000    
   805 HO_19.26         2    25.00       0.000    
   806 HO_19.27         2    26.00       0.000    
   807 HO_19.28         2    27.00       0.000    
   808 HO_19.29         2    28.00       0.000    
   809 HO_19.30         2    29.00       0.000    
   810 HO_19.31         2    30.00       0.000    
   811 HO_19.32         2    31.00       0.000    
   812 HO_19.33         2    32.00       0.000    
   813 HO_19.34         2    33.00       0.000    
   814 HO_19.35         2    34.00       0.000    
   815 HO_19.36         2    35.00       0.000    
   816 HO_19.37         2    36.00       0.000    
   817 HO_19.38         2    37.00       0.000    
   818 HO_19.39         2    38.00       0.000    
   819 HO_19.40         2    39.00       0.000    
   820 HO_19.41         2    40.00       0.000    
 
   821 HO_20          -41    0.000       0.000    
  TRANSIENT DATA AT THIS LOCATION, ITT =   1
   821 HO_20.1          2    0.000       0.000    
   822 HO_20.2          2    1.000       0.000    
   823 HO_20.3          2    2.000       0.000    
   824 HO_20.4          2    3.000       0.000    
   825 HO_20.5          2    4.000       0.000    
   826 HO_20.6          2    5.000       0.000    
   827 HO_20.7          2    6.000       0.000    
   828 HO_20.8          2    7.000       0.000    
   829 HO_20.9          2    8.000       0.000    
   830 HO_20.10         2    9.000       0.000    
   831 HO_20.11         2    10.00       0.000    
   832 HO_20.12         2    11.00       0.000    
   833 HO_20.13         2    12.00       0.000    
   834 HO_20.14         2    13.00       0.000    
   835 HO_20.15         2    14.00       0.000    
   836 HO_20.16         2    15.00       0.000    
   837 HO_20.17         2    16.00       0.000    
   838 HO_20.18         2    17.00       0.000    
   839 HO_20.19         2    18.00       0.000    
   840 HO_20.20         2    19.00       0.000    
   841 HO_20.21         2    20.00       0.000    
   842 HO_20.22         2    21.00       0.000    
   843 HO_20.23         2    22.00       0.000    
   844 HO_20.24         2    23.00       0.000    
   845 HO_20.25         2    24.00       0.000    
   846 HO_20.26         2    25.00       0.000    
   847 HO_20.27         2    26.00       0.000    
   848 HO_20.28         2    27.00       0.000    
   849 HO_20.29         2    28.00       0.000    
   850 HO_20.30         2    29.00       0.000    
   851 HO_20.31         2    30.00       0.000    
   852 HO_20.32         2    31.00       0.000    
   853 HO_20.33         2    32.00       0.000    
   854 HO_20.34         2    33.00       0.000    
   855 HO_20.35         2    34.00       0.000    
   856 HO_20.36         2    35.00       0.000    
   857 HO_20.37         2    36.00       0.000    
   858 HO_20.38         2    37.00       0.000    
   859 HO_20.39         2    38.00       0.000    
   860 HO_20.40         2    39.00       0.000    
   861 HO_20.41         2    40.00       0.000    
 
   862 HO_21          -41    0.000       0.000    
  TRANSIENT DATA AT THIS LOCATION, ITT =   1
   862 HO_21.1          2    0.000       0.000    
   863 HO_21.2          2    1.000       0.000    
   864 HO_21.3          2    2.000       0.000    
   865 HO_21.4          2    3.000       0.000    
   866 HO_21.5          2    4.000       0.000    
   867 HO_21.6          2    5.000       0.000    
   868 HO_21.7          2    6.000       0.000    
   869 HO_21.8          2    7.000       0.000    
   870 HO_21.9          2    8.000       0.000    
   871 HO_21.10         2    9.000       0.000    
   872 HO_21.11         2    10.00       0.000    
   873 HO_21.12         2    11.00       0.000    
   874 HO_21.13         2    12.00       0.000    
   875 HO_21.14         2    13.00       0.000    
   876 HO_21.15         2    14.00       0.000    
   877 HO_21.16         2    15.00       0.000    
   878 HO_21.17         2    16.00       0.000    
   879 HO_21.18         2    17.00       0.000    
   880 HO_21.19         2    18.00       0.000    
   881 HO_21.20         2    19.00       0.000    
   882 HO_21.21         2    20.00       0.000    
   883 HO_21.22         2    21.00       0.000    
   884 HO_21.23         2    22.00       0.000    
   885 HO_21.24         2    23.00       0.000    
   886 HO_21.25         2    24.00       0.000    
   887 HO_21.26         2    25.00       0.000    
   888 HO_21.27         2    26.00       0.000    
   889 HO_21.28         2    27.00       0.000    
   890 HO_21.29         2    28.00       0.000    
   891 HO_21.30         2    29.00       0.000    
   892 HO_21.31         2    30.00       0.000    
   893 HO_21.32         2    31.00       0.000    
   894 HO_21.33         2    32.00       0.000    
   895 HO_21.34         2    33.00       0.000    
   896 HO_21.35         2    34.00       0.000    
   897 HO_21.36         2    35.00       0.000    
   898 HO_21.37         2    36.00       0.000    
   899 HO_21.38         2    37.00       0.000    
   900 HO_21.39         2    38.00       0.000    
   901 HO_21.40         2    39.00       0.000    
   902 HO_21.41         2    40.00       0.000    
 
   903 HO_22          -41    0.000       0.000    
  TRANSIENT DATA AT THIS LOCATION, ITT =   1
   903 HO_22.1          2    0.000       0.000    
   904 HO_22.2          2    1.000       0.000    
   905 HO_22.3          2    2.000       0.000    
   906 HO_22.4          2    3.000       0.000    
   907 HO_22.5          2    4.000       0.000    
   908 HO_22.6          2    5.000       0.000    
   909 HO_22.7          2    6.000       0.000    
   910 HO_22.8          2    7.000       0.000    
   911 HO_22.9          2    8.000       0.000    
   912 HO_22.10         2    9.000       0.000    
   913 HO_22.11         2    10.00       0.000    
   914 HO_22.12         2    11.00       0.000    
   915 HO_22.13         2    12.00       0.000    
   916 HO_22.14         2    13.00       0.000    
   917 HO_22.15         2    14.00       0.000    
   918 HO_22.16         2    15.00       0.000    
   919 HO_22.17         2    16.00       0.000    
   920 HO_22.18         2    17.00       0.000    
   921 HO_22.19         2    18.00       0.000    
   922 HO_22.20         2    19.00       0.000    
   923 HO_22.21         2    20.00       0.000    
   924 HO_22.22         2    21.00       0.000    
   925 HO_22.23         2    22.00       0.000    
   926 HO_22.24         2    23.00       0.000    
   927 HO_22.25         2    24.00       0.000    
   928 HO_22.26         2    25.00       0.000    
   929 HO_22.27         2    26.00       0.000    
   930 HO_22.28         2    27.00       0.000    
   931 HO_22.29         2    28.00       0.000    
   932 HO_22.30         2    29.00       0.000    
   933 HO_22.31         2    30.00       0.000    
   934 HO_22.32         2    31.00       0.000    
   935 HO_22.33         2    32.00       0.000    
   936 HO_22.34         2    33.00       0.000    
   937 HO_22.35         2    34.00       0.000    
   938 HO_22.36         2    35.00       0.000    
   939 HO_22.37         2    36.00       0.000    
   940 HO_22.38         2    37.00       0.000    
   941 HO_22.39         2    38.00       0.000    
   942 HO_22.40         2    39.00       0.000    
   943 HO_22.41         2    40.00       0.000    
 
   944 HO_23          -41    0.000       0.000    
  TRANSIENT DATA AT THIS LOCATION, ITT =   1
   944 HO_23.1          2    0.000       0.000    
   945 HO_23.2          2    1.000       0.000    
   946 HO_23.3          2    2.000       0.000    
   947 HO_23.4          2    3.000       0.000    
   948 HO_23.5          2    4.000       0.000    
   949 HO_23.6          2    5.000       0.000    
   950 HO_23.7          2    6.000       0.000    
   951 HO_23.8          2    7.000       0.000    
   952 HO_23.9          2    8.000       0.000    
   953 HO_23.10         2    9.000       0.000    
   954 HO_23.11         2    10.00       0.000    
   955 HO_23.12         2    11.00       0.000    
   956 HO_23.13         2    12.00       0.000    
   957 HO_23.14         2    13.00       0.000    
   958 HO_23.15         2    14.00       0.000    
   959 HO_23.16         2    15.00       0.000    
   960 HO_23.17         2    16.00       0.000    
   961 HO_23.18         2    17.00       0.000    
   962 HO_23.19         2    18.00       0.000    
   963 HO_23.20         2    19.00       0.000    
   964 HO_23.21         2    20.00       0.000    
   965 HO_23.22         2    21.00       0.000    
   966 HO_23.23         2    22.00       0.000    
   967 HO_23.24         2    23.00       0.000    
   968 HO_23.25         2    24.00       0.000    
   969 HO_23.26         2    25.00       0.000    
   970 HO_23.27         2    26.00       0.000    
   971 HO_23.28         2    27.00       0.000    
   972 HO_23.29         2    28.00       0.000    
   973 HO_23.30         2    29.00       0.000    
   974 HO_23.31         2    30.00       0.000    
   975 HO_23.32         2    31.00       0.000    
   976 HO_23.33         2    32.00       0.000    
   977 HO_23.34         2    33.00       0.000    
   978 HO_23.35         2    34.00       0.000    
   979 HO_23.36         2    35.00       0.000    
   980 HO_23.37         2    36.00       0.000    
   981 HO_23.38         2    37.00       0.000    
   982 HO_23.39         2    38.00       0.000    
   983 HO_23.40         2    39.00       0.000    
   984 HO_23.41         2    40.00       0.000    
 
   985 HO_24          -41    0.000       0.000    
  TRANSIENT DATA AT THIS LOCATION, ITT =   1
   985 HO_24.1          2    0.000       0.000    
   986 HO_24.2          2    1.000       0.000    
   987 HO_24.3          2    2.000       0.000    
   988 HO_24.4          2    3.000       0.000    
   989 HO_24.5          2    4.000       0.000    
   990 HO_24.6          2    5.000       0.000    
   991 HO_24.7          2    6.000       0.000    
   992 HO_24.8          2    7.000       0.000    
   993 HO_24.9          2    8.000       0.000    
   994 HO_24.10         2    9.000       0.000    
   995 HO_24.11         2    10.00       0.000    
   996 HO_24.12         2    11.00       0.000    
   997 HO_24.13         2    12.00       0.000    
   998 HO_24.14         2    13.00       0.000    
   999 HO_24.15         2    14.00       0.000    
  1000 HO_24.16         2    15.00       0.000    
  1001 HO_24.17         2    16.00       0.000    
  1002 HO_24.18         2    17.00       0.000    
  1003 HO_24.19         2    18.00       0.000    
  1004 HO_24.20         2    19.00       0.000    
  1005 HO_24.21         2    20.00       0.000    
  1006 HO_24.22         2    21.00       0.000    
  1007 HO_24.23         2    22.00       0.000    
  1008 HO_24.24         2    23.00       0.000    
  1009 HO_24.25         2    24.00       0.000    
  1010 HO_24.26         2    25.00       0.000    
  1011 HO_24.27         2    26.00       0.000    
  1012 HO_24.28         2    27.00       0.000    
  1013 HO_24.29         2    28.00       0.000    
  1014 HO_24.30         2    29.00       0.000    
  1015 HO_24.31         2    30.00       0.000    
  1016 HO_24.32         2    31.00       0.000    
  1017 HO_24.33         2    32.00       0.000    
  1018 HO_24.34         2    33.00       0.000    
  1019 HO_24.35         2    34.00       0.000    
  1020 HO_24.36         2    35.00       0.000    
  1021 HO_24.37         2    36.00       0.000    
  1022 HO_24.38         2    37.00       0.000    
  1023 HO_24.39         2    38.00       0.000    
  1024 HO_24.40         2    39.00       0.000    
  1025 HO_24.41         2    40.00       0.000    
 
  1026 HO_25          -41    0.000       0.000    
  TRANSIENT DATA AT THIS LOCATION, ITT =   1
  1026 HO_25.1          2    0.000       0.000    
  1027 HO_25.2          2    1.000       0.000    
  1028 HO_25.3          2    2.000       0.000    
  1029 HO_25.4          2    3.000       0.000    
  1030 HO_25.5          2    4.000       0.000    
  1031 HO_25.6          2    5.000       0.000    
  1032 HO_25.7          2    6.000       0.000    
  1033 HO_25.8          2    7.000       0.000    
  1034 HO_25.9          2    8.000       0.000    
  1035 HO_25.10         2    9.000       0.000    
  1036 HO_25.11         2    10.00       0.000    
  1037 HO_25.12         2    11.00       0.000    
  1038 HO_25.13         2    12.00       0.000    
  1039 HO_25.14         2    13.00       0.000    
  1040 HO_25.15         2    14.00       0.000    
  1041 HO_25.16         2    15.00       0.000    
  1042 HO_25.17         2    16.00       0.000    
  1043 HO_25.18         2    17.00       0.000    
  1044 HO_25.19         2    18.00       0.000    
  1045 HO_25.20         2    19.00       0.000    
  1046 HO_25.21         2    20.00       0.000    
  1047 HO_25.22         2    21.00       0.000    
  1048 HO_25.23         2    22.00       0.000    
  1049 HO_25.24         2    23.00       0.000    
  1050 HO_25.25         2    24.00       0.000    
  1051 HO_25.26         2    25.00       0.000    
  1052 HO_25.27         2    26.00       0.000    
  1053 HO_25.28         2    27.00       0.000    
  1054 HO_25.29         2    28.00       0.000    
  1055 HO_25.30         2    29.00       0.000    
  1056 HO_25.31         2    30.00       0.000    
  1057 HO_25.32         2    31.00       0.000    
  1058 HO_25.33         2    32.00       0.000    
  1059 HO_25.34         2    33.00       0.000    
  1060 HO_25.35         2    34.00       0.000    
  1061 HO_25.36         2    35.00       0.000    
  1062 HO_25.37         2    36.00       0.000    
  1063 HO_25.38         2    37.00       0.000    
  1064 HO_25.39         2    38.00       0.000    
  1065 HO_25.40         2    39.00       0.000    
  1066 HO_25.41         2    40.00       0.000    
 
  1067 HO_26          -41    0.000       0.000    
  TRANSIENT DATA AT THIS LOCATION, ITT =   1
  1067 HO_26.1          2    0.000       0.000    
  1068 HO_26.2          2    1.000       0.000    
  1069 HO_26.3          2    2.000       0.000    
  1070 HO_26.4          2    3.000       0.000    
  1071 HO_26.5          2    4.000       0.000    
  1072 HO_26.6          2    5.000       0.000    
  1073 HO_26.7          2    6.000       0.000    
  1074 HO_26.8          2    7.000       0.000    
  1075 HO_26.9          2    8.000       0.000    
  1076 HO_26.10         2    9.000       0.000    
  1077 HO_26.11         2    10.00       0.000    
  1078 HO_26.12         2    11.00       0.000    
  1079 HO_26.13         2    12.00       0.000    
  1080 HO_26.14         2    13.00       0.000    
  1081 HO_26.15         2    14.00       0.000    
  1082 HO_26.16         2    15.00       0.000    
  1083 HO_26.17         2    16.00       0.000    
  1084 HO_26.18         2    17.00       0.000    
  1085 HO_26.19         2    18.00       0.000    
  1086 HO_26.20         2    19.00       0.000    
  1087 HO_26.21         2    20.00       0.000    
  1088 HO_26.22         2    21.00       0.000    
  1089 HO_26.23         2    22.00       0.000    
  1090 HO_26.24         2    23.00       0.000    
  1091 HO_26.25         2    24.00       0.000    
  1092 HO_26.26         2    25.00       0.000    
  1093 HO_26.27         2    26.00       0.000    
  1094 HO_26.28         2    27.00       0.000    
  1095 HO_26.29         2    28.00       0.000    
  1096 HO_26.30         2    29.00       0.000    
  1097 HO_26.31         2    30.00       0.000    
  1098 HO_26.32         2    31.00       0.000    
  1099 HO_26.33         2    32.00       0.000    
  1100 HO_26.34         2    33.00       0.000    
  1101 HO_26.35         2    34.00       0.000    
  1102 HO_26.36         2    35.00       0.000    
  1103 HO_26.37         2    36.00       0.000    
  1104 HO_26.38         2    37.00       0.000    
  1105 HO_26.39         2    38.00       0.000    
  1106 HO_26.40         2    39.00       0.000    
  1107 HO_26.41         2    40.00       0.000    
 
  1108 HO_27          -41    0.000       0.000    
  TRANSIENT DATA AT THIS LOCATION, ITT =   1
  1108 HO_27.1          2    0.000       0.000    
  1109 HO_27.2          2    1.000       0.000    
  1110 HO_27.3          2    2.000       0.000    
  1111 HO_27.4          2    3.000       0.000    
  1112 HO_27.5          2    4.000       0.000    
  1113 HO_27.6          2    5.000       0.000    
  1114 HO_27.7          2    6.000       0.000    
  1115 HO_27.8          2    7.000       0.000    
  1116 HO_27.9          2    8.000       0.000    
  1117 HO_27.10         2    9.000       0.000    
  1118 HO_27.11         2    10.00       0.000    
  1119 HO_27.12         2    11.00       0.000    
  1120 HO_27.13         2    12.00       0.000    
  1121 HO_27.14         2    13.00       0.000    
  1122 HO_27.15         2    14.00       0.000    
  1123 HO_27.16         2    15.00       0.000    
  1124 HO_27.17         2    16.00       0.000    
  1125 HO_27.18         2    17.00       0.000    
  1126 HO_27.19         2    18.00       0.000    
  1127 HO_27.20         2    19.00       0.000    
  1128 HO_27.21         2    20.00       0.000    
  1129 HO_27.22         2    21.00       0.000    
  1130 HO_27.23         2    22.00       0.000    
  1131 HO_27.24         2    23.00       0.000    
  1132 HO_27.25         2    24.00       0.000    
  1133 HO_27.26         2    25.00       0.000    
  1134 HO_27.27         2    26.00       0.000    
  1135 HO_27.28         2    27.00       0.000    
  1136 HO_27.29         2    28.00       0.000    
  1137 HO_27.30         2    29.00       0.000    
  1138 HO_27.31         2    30.00       0.000    
  1139 HO_27.32         2    31.00       0.000    
  1140 HO_27.33         2    32.00       0.000    
  1141 HO_27.34         2    33.00       0.000    
  1142 HO_27.35         2    34.00       0.000    
  1143 HO_27.36         2    35.00       0.000    
  1144 HO_27.37         2    36.00       0.000    
  1145 HO_27.38         2    37.00       0.000    
  1146 HO_27.39         2    38.00       0.000    
  1147 HO_27.40         2    39.00       0.000    
  1148 HO_27.41         2    40.00       0.000    
 
  1149 HO_28          -41    0.000       0.000    
  TRANSIENT DATA AT THIS LOCATION, ITT =   1
  1149 HO_28.1          2    0.000       0.000    
  1150 HO_28.2          2    1.000       0.000    
  1151 HO_28.3          2    2.000       0.000    
  1152 HO_28.4          2    3.000       0.000    
  1153 HO_28.5          2    4.000       0.000    
  1154 HO_28.6          2    5.000       0.000    
  1155 HO_28.7          2    6.000       0.000    
  1156 HO_28.8          2    7.000       0.000    
  1157 HO_28.9          2    8.000       0.000    
  1158 HO_28.10         2    9.000       0.000    
  1159 HO_28.11         2    10.00       0.000    
  1160 HO_28.12         2    11.00       0.000    
  1161 HO_28.13         2    12.00       0.000    
  1162 HO_28.14         2    13.00       0.000    
  1163 HO_28.15         2    14.00       0.000    
  1164 HO_28.16         2    15.00       0.000    
  1165 HO_28.17         2    16.00       0.000    
  1166 HO_28.18         2    17.00       0.000    
  1167 HO_28.19         2    18.00       0.000    
  1168 HO_28.20         2    19.00       0.000    
  1169 HO_28.21         2    20.00       0.000    
  1170 HO_28.22         2    21.00       0.000    
  1171 HO_28.23         2    22.00       0.000    
  1172 HO_28.24         2    23.00       0.000    
  1173 HO_28.25         2    24.00       0.000    
  1174 HO_28.26         2    25.00       0.000    
  1175 HO_28.27         2    26.00       0.000    
  1176 HO_28.28         2    27.00       0.000    
  1177 HO_28.29         2    28.00       0.000    
  1178 HO_28.30         2    29.00       0.000    
  1179 HO_28.31         2    30.00       0.000    
  1180 HO_28.32         2    31.00       0.000    
  1181 HO_28.33         2    32.00       0.000    
  1182 HO_28.34         2    33.00       0.000    
  1183 HO_28.35         2    34.00       0.000    
  1184 HO_28.36         2    35.00       0.000    
  1185 HO_28.37         2    36.00       0.000    
  1186 HO_28.38         2    37.00       0.000    
  1187 HO_28.39         2    38.00       0.000    
  1188 HO_28.40         2    39.00       0.000    
  1189 HO_28.41         2    40.00       0.000    
 
  1190 HO_29          -41    0.000       0.000    
  TRANSIENT DATA AT THIS LOCATION, ITT =   1
  1190 HO_29.1          2    0.000       0.000    
  1191 HO_29.2          2    1.000       0.000    
  1192 HO_29.3          2    2.000       0.000    
  1193 HO_29.4          2    3.000       0.000    
  1194 HO_29.5          2    4.000       0.000    
  1195 HO_29.6          2    5.000       0.000    
  1196 HO_29.7          2    6.000       0.000    
  1197 HO_29.8          2    7.000       0.000    
  1198 HO_29.9          2    8.000       0.000    
  1199 HO_29.10         2    9.000       0.000    
  1200 HO_29.11         2    10.00       0.000    
  1201 HO_29.12         2    11.00       0.000    
  1202 HO_29.13         2    12.00       0.000    
  1203 HO_29.14         2    13.00       0.000    
  1204 HO_29.15         2    14.00       0.000    
  1205 HO_29.16         2    15.00       0.000    
  1206 HO_29.17         2    16.00       0.000    
  1207 HO_29.18         2    17.00       0.000    
  1208 HO_29.19         2    18.00       0.000    
  1209 HO_29.20         2    19.00       0.000    
  1210 HO_29.21         2    20.00       0.000    
  1211 HO_29.22         2    21.00       0.000    
  1212 HO_29.23         2    22.00       0.000    
  1213 HO_29.24         2    23.00       0.000    
  1214 HO_29.25         2    24.00       0.000    
  1215 HO_29.26         2    25.00       0.000    
  1216 HO_29.27         2    26.00       0.000    
  1217 HO_29.28         2    27.00       0.000    
  1218 HO_29.29         2    28.00       0.000    
  1219 HO_29.30         2    29.00       0.000    
  1220 HO_29.31         2    30.00       0.000    
  1221 HO_29.32         2    31.00       0.000    
  1222 HO_29.33         2    32.00       0.000    
  1223 HO_29.34         2    33.00       0.000    
  1224 HO_29.35         2    34.00       0.000    
  1225 HO_29.36         2    35.00       0.000    
  1226 HO_29.37         2    36.00       0.000    
  1227 HO_29.38         2    37.00       0.000    
  1228 HO_29.39         2    38.00       0.000    
  1229 HO_29.40         2    39.00       0.000    
  1230 HO_29.41         2    40.00       0.000    
 
  1231 HO_30          -41    0.000       0.000    
  TRANSIENT DATA AT THIS LOCATION, ITT =   1
  1231 HO_30.1          2    0.000       0.000    
  1232 HO_30.2          2    1.000       0.000    
  1233 HO_30.3          2    2.000       0.000    
  1234 HO_30.4          2    3.000       0.000    
  1235 HO_30.5          2    4.000       0.000    
  1236 HO_30.6          2    5.000       0.000    
  1237 HO_30.7          2    6.000       0.000    
  1238 HO_30.8          2    7.000       0.000    
  1239 HO_30.9          2    8.000       0.000    
  1240 HO_30.10         2    9.000       0.000    
  1241 HO_30.11         2    10.00       0.000    
  1242 HO_30.12         2    11.00       0.000    
  1243 HO_30.13         2    12.00       0.000    
  1244 HO_30.14         2    13.00       0.000    
  1245 HO_30.15         2    14.00       0.000    
  1246 HO_30.16         2    15.00       0.000    
  1247 HO_30.17         2    16.00       0.000    
  1248 HO_30.18         2    17.00       0.000    
  1249 HO_30.19         2    18.00       0.000    
  1250 HO_30.20         2    19.00       0.000    
  1251 HO_30.21         2    20.00       0.000    
  1252 HO_30.22         2    21.00       0.000    
  1253 HO_30.23         2    22.00       0.000    
  1254 HO_30.24         2    23.00       0.000    
  1255 HO_30.25         2    24.00       0.000    
  1256 HO_30.26         2    25.00       0.000    
  1257 HO_30.27         2    26.00       0.000    
  1258 HO_30.28         2    27.00       0.000    
  1259 HO_30.29         2    28.00       0.000    
  1260 HO_30.30         2    29.00       0.000    
  1261 HO_30.31         2    30.00       0.000    
  1262 HO_30.32         2    31.00       0.000    
  1263 HO_30.33         2    32.00       0.000    
  1264 HO_30.34         2    33.00       0.000    
  1265 HO_30.35         2    34.00       0.000    
  1266 HO_30.36         2    35.00       0.000    
  1267 HO_30.37         2    36.00       0.000    
  1268 HO_30.38         2    37.00       0.000    
  1269 HO_30.39         2    38.00       0.000    
  1270 HO_30.40         2    39.00       0.000    
  1271 HO_30.41         2    40.00       0.000    
 
  1272 HO_31          -41    0.000       0.000    
  TRANSIENT DATA AT THIS LOCATION, ITT =   1
  1272 HO_31.1          2    0.000       0.000    
  1273 HO_31.2          2    1.000       0.000    
  1274 HO_31.3          2    2.000       0.000    
  1275 HO_31.4          2    3.000       0.000    
  1276 HO_31.5          2    4.000       0.000    
  1277 HO_31.6          2    5.000       0.000    
  1278 HO_31.7          2    6.000       0.000    
  1279 HO_31.8          2    7.000       0.000    
  1280 HO_31.9          2    8.000       0.000    
  1281 HO_31.10         2    9.000       0.000    
  1282 HO_31.11         2    10.00       0.000    
  1283 HO_31.12         2    11.00       0.000    
  1284 HO_31.13         2    12.00       0.000    
  1285 HO_31.14         2    13.00       0.000    
  1286 HO_31.15         2    14.00       0.000    
  1287 HO_31.16         2    15.00       0.000    
  1288 HO_31.17         2    16.00       0.000    
  1289 HO_31.18         2    17.00       0.000    
  1290 HO_31.19         2    18.00       0.000    
  1291 HO_31.20         2    19.00       0.000    
  1292 HO_31.21         2    20.00       0.000    
  1293 HO_31.22         2    21.00       0.000    
  1294 HO_31.23         2    22.00       0.000    
  1295 HO_31.24         2    23.00       0.000    
  1296 HO_31.25         2    24.00       0.000    
  1297 HO_31.26         2    25.00       0.000    
  1298 HO_31.27         2    26.00       0.000    
  1299 HO_31.28         2    27.00       0.000    
  1300 HO_31.29         2    28.00       0.000    
  1301 HO_31.30         2    29.00       0.000    
  1302 HO_31.31         2    30.00       0.000    
  1303 HO_31.32         2    31.00       0.000    
  1304 HO_31.33         2    32.00       0.000    
  1305 HO_31.34         2    33.00       0.000    
  1306 HO_31.35         2    34.00       0.000    
  1307 HO_31.36         2    35.00       0.000    
  1308 HO_31.37         2    36.00       0.000    
  1309 HO_31.38         2    37.00       0.000    
  1310 HO_31.39         2    38.00       0.000    
  1311 HO_31.40         2    39.00       0.000    
  1312 HO_31.41         2    40.00       0.000    
 
  1313 HO_32          -41    0.000       0.000    
  TRANSIENT DATA AT THIS LOCATION, ITT =   1
  1313 HO_32.1          2    0.000       0.000    
  1314 HO_32.2          2    1.000       0.000    
  1315 HO_32.3          2    2.000       0.000    
  1316 HO_32.4          2    3.000       0.000    
  1317 HO_32.5          2    4.000       0.000    
  1318 HO_32.6          2    5.000       0.000    
  1319 HO_32.7          2    6.000       0.000    
  1320 HO_32.8          2    7.000       0.000    
  1321 HO_32.9          2    8.000       0.000    
  1322 HO_32.10         2    9.000       0.000    
  1323 HO_32.11         2    10.00       0.000    
  1324 HO_32.12         2    11.00       0.000    
  1325 HO_32.13         2    12.00       0.000    
  1326 HO_32.14         2    13.00       0.000    
  1327 HO_32.15         2    14.00       0.000    
  1328 HO_32.16         2    15.00       0.000    
  1329 HO_32.17         2    16.00       0.000    
  1330 HO_32.18         2    17.00       0.000    
  1331 HO_32.19         2    18.00       0.000    
  1332 HO_32.20         2    19.00       0.000    
  1333 HO_32.21         2    20.00       0.000    
  1334 HO_32.22         2    21.00       0.000    
  1335 HO_32.23         2    22.00       0.000    
  1336 HO_32.24         2    23.00       0.000    
  1337 HO_32.25         2    24.00       0.000    
  1338 HO_32.26         2    25.00       0.000    
  1339 HO_32.27         2    26.00       0.000    
  1340 HO_32.28         2    27.00       0.000    
  1341 HO_32.29         2    28.00       0.000    
  1342 HO_32.30         2    29.00       0.000    
  1343 HO_32.31         2    30.00       0.000    
  1344 HO_32.32         2    31.00       0.000    
  1345 HO_32.33         2    32.00       0.000    
  1346 HO_32.34         2    33.00       0.000    
  1347 HO_32.35         2    34.00       0.000    
  1348 HO_32.36         2    35.00       0.000    
  1349 HO_32.37         2    36.00       0.000    
  1350 HO_32.38         2    37.00       0.000    
  1351 HO_32.39         2    38.00       0.000    
  1352 HO_32.40         2    39.00       0.000    
  1353 HO_32.41         2    40.00       0.000    
 
  1354 HO_33          -41    0.000       0.000    
  TRANSIENT DATA AT THIS LOCATION, ITT =   1
  1354 HO_33.1          2    0.000       0.000    
  1355 HO_33.2          2    1.000       0.000    
  1356 HO_33.3          2    2.000       0.000    
[...]
 HO_42.20        0.0000000000        44.999969482       -44.999969482    
 HO_42.21        0.0000000000        44.999958038       -44.999958038    
 HO_42.22        0.0000000000        44.999942780       -44.999942780    
 HO_42.23        0.0000000000        44.999923706       -44.999923706    
 HO_42.24        0.0000000000        44.999897003       -44.999897003    
 HO_42.25        0.0000000000        44.999870300       -44.999870300    
 HO_42.26        0.0000000000        44.999832153       -44.999832153    
 HO_42.27        0.0000000000        44.999790192       -44.999790192    
 HO_42.28        0.0000000000        44.999736786       -44.999736786    
 HO_42.29        0.0000000000        44.999675751       -44.999675751    
 HO_42.30        0.0000000000        44.999607086       -44.999607086    
 HO_42.31        0.0000000000        44.999523163       -44.999523163    
 HO_42.32        0.0000000000        44.999431610       -44.999431610    
 HO_42.33        0.0000000000        44.999324799       -44.999324799    
 HO_42.34        0.0000000000        44.999202728       -44.999202728    
 HO_42.35        0.0000000000        44.999065399       -44.999065399    
 HO_42.36        0.0000000000        44.998916626       -44.998916626    
 HO_42.37        0.0000000000        44.998748779       -44.998748779    
 HO_42.38        0.0000000000        44.998561859       -44.998561859    
 HO_42.39        0.0000000000        44.998355865       -44.998355865    
 HO_42.40        0.0000000000        44.998134613       -44.998134613    
 HO_42.41        0.0000000000        44.997890472       -44.997890472    
 HO_43.1         0.0000000000        45.000000000       -45.000000000    
 HO_43.2         0.0000000000        45.000000000       -45.000000000    
 HO_43.3         0.0000000000        45.000000000       -45.000000000    
 HO_43.4         0.0000000000        45.000000000       -45.000000000    
 HO_43.5         0.0000000000        45.000000000       -45.000000000    
 HO_43.6         0.0000000000        45.000000000       -45.000000000    
 HO_43.7         0.0000000000        45.000000000       -45.000000000    
 HO_43.8         0.0000000000        45.000000000       -45.000000000    
 HO_43.9         0.0000000000        45.000000000       -45.000000000    
 HO_43.10        0.0000000000        45.000000000       -45.000000000    
 HO_43.11        0.0000000000        45.000000000       -45.000000000    
 HO_43.12        0.0000000000        45.000000000       -45.000000000    
 HO_43.13        0.0000000000        45.000000000       -45.000000000    
 HO_43.14        0.0000000000        44.999996185       -44.999996185    
 HO_43.15        0.0000000000        44.999996185       -44.999996185    
 HO_43.16        0.0000000000        44.999992371       -44.999992371    
 HO_43.17        0.0000000000        44.999988556       -44.999988556    
 HO_43.18        0.0000000000        44.999984741       -44.999984741    
 HO_43.19        0.0000000000        44.999977112       -44.999977112    
 HO_43.20        0.0000000000        44.999969482       -44.999969482    
 HO_43.21        0.0000000000        44.999958038       -44.999958038    
 HO_43.22        0.0000000000        44.999942780       -44.999942780    
 HO_43.23        0.0000000000        44.999919891       -44.999919891    
 HO_43.24        0.0000000000        44.999897003       -44.999897003    
 HO_43.25        0.0000000000        44.999866486       -44.999866486    
 HO_43.26        0.0000000000        44.999828339       -44.999828339    
 HO_43.27        0.0000000000        44.999786377       -44.999786377    
 HO_43.28        0.0000000000        44.999732971       -44.999732971    
 HO_43.29        0.0000000000        44.999671936       -44.999671936    
 HO_43.30        0.0000000000        44.999599457       -44.999599457    
 HO_43.31        0.0000000000        44.999515533       -44.999515533    
 HO_43.32        0.0000000000        44.999420166       -44.999420166    
 HO_43.33        0.0000000000        44.999313354       -44.999313354    
 HO_43.34        0.0000000000        44.999187469       -44.999187469    
 HO_43.35        0.0000000000        44.999050140       -44.999050140    
 HO_43.36        0.0000000000        44.998897552       -44.998897552    
 HO_43.37        0.0000000000        44.998725891       -44.998725891    
 HO_43.38        0.0000000000        44.998535156       -44.998535156    
 HO_43.39        0.0000000000        44.998329163       -44.998329163    
 HO_43.40        0.0000000000        44.998100281       -44.998100281    
 HO_43.41        0.0000000000        44.997852325       -44.997852325    
 HO_44.1         0.0000000000        45.000000000       -45.000000000    
 HO_44.2         0.0000000000        45.000000000       -45.000000000    
 HO_44.3         0.0000000000        45.000000000       -45.000000000    
 HO_44.4         0.0000000000        45.000000000       -45.000000000    
 HO_44.5         0.0000000000        45.000000000       -45.000000000    
 HO_44.6         0.0000000000        45.000000000       -45.000000000    
 HO_44.7         0.0000000000        45.000000000       -45.000000000    
 HO_44.8         0.0000000000        44.999996185       -44.999996185    
 HO_44.9         0.0000000000        44.999992371       -44.999992371    
 HO_44.10        0.0000000000        44.999984741       -44.999984741    
 HO_44.11        0.0000000000        44.999969482       -44.999969482    
 HO_44.12        0.0000000000        44.999946594       -44.999946594    
 HO_44.13        0.0000000000        44.999916077       -44.999916077    
 HO_44.14        0.0000000000        44.999866486       -44.999866486    
 HO_44.15        0.0000000000        44.999801636       -44.999801636    
 HO_44.16        0.0000000000        44.999710083       -44.999710083    
 HO_44.17        0.0000000000        44.999588013       -44.999588013    
 HO_44.18        0.0000000000        44.999431610       -44.999431610    
 HO_44.19        0.0000000000        44.999233246       -44.999233246    
 HO_44.20        0.0000000000        44.998989105       -44.998989105    
 HO_44.21        0.0000000000        44.998691559       -44.998691559    
 HO_44.22        0.0000000000        44.998336792       -44.998336792    
 HO_44.23        0.0000000000        44.997920990       -44.997920990    
 HO_44.24        0.0000000000        44.997432709       -44.997432709    
 HO_44.25        0.0000000000        44.996871948       -44.996871948    
 HO_44.26        0.0000000000        44.996231079       -44.996231079    
 HO_44.27        0.0000000000        44.995506287       -44.995506287    
 HO_44.28        0.0000000000        44.994693756       -44.994693756    
 HO_44.29        0.0000000000        44.993793488       -44.993793488    
 HO_44.30        0.0000000000        44.992801666       -44.992801666    
 HO_44.31        0.0000000000        44.991714478       -44.991714478    
 HO_44.32        0.0000000000        44.990528107       -44.990528107    
 HO_44.33        0.0000000000        44.989246368       -44.989246368    
 HO_44.34        0.0000000000        44.987865448       -44.987865448    
 HO_44.35        0.0000000000        44.986385345       -44.986385345    
 HO_44.36        0.0000000000        44.984806061       -44.984806061    
 HO_44.37        0.0000000000        44.983131409       -44.983131409    
 HO_44.38        0.0000000000        44.981357574       -44.981357574    
 HO_44.39        0.0000000000        44.979492188       -44.979492188    
 HO_44.40        0.0000000000        44.977527618       -44.977527618    
 HO_44.41        0.0000000000        44.975471497       -44.975471497    
 HO_45.1         0.0000000000        45.000000000       -45.000000000    
 HO_45.2         0.0000000000        45.000000000       -45.000000000    
 HO_45.3         0.0000000000        45.000000000       -45.000000000    
 HO_45.4         0.0000000000        45.000000000       -45.000000000    
 HO_45.5         0.0000000000        45.000000000       -45.000000000    
 HO_45.6         0.0000000000        45.000000000       -45.000000000    
 HO_45.7         0.0000000000        45.000000000       -45.000000000    
 HO_45.8         0.0000000000        45.000000000       -45.000000000    
 HO_45.9         0.0000000000        44.999996185       -44.999996185    
 HO_45.10        0.0000000000        44.999992371       -44.999992371    
 HO_45.11        0.0000000000        44.999984741       -44.999984741    
 HO_45.12        0.0000000000        44.999969482       -44.999969482    
 HO_45.13        0.0000000000        44.999950409       -44.999950409    
 HO_45.14        0.0000000000        44.999919891       -44.999919891    
 HO_45.15        0.0000000000        44.999874115       -44.999874115    
 HO_45.16        0.0000000000        44.999809265       -44.999809265    
 HO_45.17        0.0000000000        44.999721527       -44.999721527    
 HO_45.18        0.0000000000        44.999607086       -44.999607086    
 HO_45.19        0.0000000000        44.999454498       -44.999454498    
 HO_45.20        0.0000000000        44.999259949       -44.999259949    
 HO_45.21        0.0000000000        44.999019623       -44.999019623    
 HO_45.22        0.0000000000        44.998722076       -44.998722076    
 HO_45.23        0.0000000000        44.998363495       -44.998363495    
 HO_45.24        0.0000000000        44.997940063       -44.997940063    
 HO_45.25        0.0000000000        44.997436523       -44.997436523    
 HO_45.26        0.0000000000        44.996849060       -44.996849060    
 HO_45.27        0.0000000000        44.996173859       -44.996173859    
 HO_45.28        0.0000000000        44.995403290       -44.995403290    
 HO_45.29        0.0000000000        44.994533539       -44.994533539    
 HO_45.30        0.0000000000        44.993556976       -44.993556976    
 HO_45.31        0.0000000000        44.992465973       -44.992465973    
 HO_45.32        0.0000000000        44.991260529       -44.991260529    
 HO_45.33        0.0000000000        44.989936829       -44.989936829    
 HO_45.34        0.0000000000        44.988491058       -44.988491058    
 HO_45.35        0.0000000000        44.986919403       -44.986919403    
 HO_45.36        0.0000000000        44.985221863       -44.985221863    
 HO_45.37        0.0000000000        44.983398438       -44.983398438    
 HO_45.38        0.0000000000        44.981441498       -44.981441498    
 HO_45.39        0.0000000000        44.979358673       -44.979358673    
 HO_45.40        0.0000000000        44.977146149       -44.977146149    
 HO_45.41        0.0000000000        44.974803925       -44.974803925    
 HO_46.1         0.0000000000        45.000000000       -45.000000000    
 HO_46.2         0.0000000000        45.000000000       -45.000000000    
 HO_46.3         0.0000000000        45.000000000       -45.000000000    
 HO_46.4         0.0000000000        45.000000000       -45.000000000    
 HO_46.5         0.0000000000        45.000000000       -45.000000000    
 HO_46.6         0.0000000000        45.000000000       -45.000000000    
 HO_46.7         0.0000000000        45.000000000       -45.000000000    
 HO_46.8         0.0000000000        45.000000000       -45.000000000    
 HO_46.9         0.0000000000        45.000000000       -45.000000000    
 HO_46.10        0.0000000000        45.000000000       -45.000000000    
 HO_46.11        0.0000000000        45.000000000       -45.000000000    
 HO_46.12        0.0000000000        45.000000000       -45.000000000    
 HO_46.13        0.0000000000        45.000000000       -45.000000000    
 HO_46.14        0.0000000000        45.000000000       -45.000000000    
 HO_46.15        0.0000000000        45.000000000       -45.000000000    
 HO_46.16        0.0000000000        45.000000000       -45.000000000    
 HO_46.17        0.0000000000        45.000000000       -45.000000000    
 HO_46.18        0.0000000000        45.000000000       -45.000000000    
 HO_46.19        0.0000000000        45.000000000       -45.000000000    
 HO_46.20        0.0000000000        45.000000000       -45.000000000    
 HO_46.21        0.0000000000        45.000000000       -45.000000000    
 HO_46.22        0.0000000000        45.000000000       -45.000000000    
 HO_46.23        0.0000000000        45.000000000       -45.000000000    
 HO_46.24        0.0000000000        45.000000000       -45.000000000    
 HO_46.25        0.0000000000        45.000000000       -45.000000000    
 HO_46.26        0.0000000000        45.000000000       -45.000000000    
 HO_46.27        0.0000000000        45.000000000       -45.000000000    
 HO_46.28        0.0000000000        45.000000000       -45.000000000    
 HO_46.29        0.0000000000        45.000000000       -45.000000000    
 HO_46.30        0.0000000000        45.000000000       -45.000000000    
 HO_46.31        0.0000000000        45.000000000       -45.000000000    
 HO_46.32        0.0000000000        45.000000000       -45.000000000    
 HO_46.33        0.0000000000        45.000000000       -45.000000000    
 HO_46.34        0.0000000000        45.000000000       -45.000000000    
 HO_46.35        0.0000000000        45.000000000       -45.000000000    
 HO_46.36        0.0000000000        45.000000000       -45.000000000    
 HO_46.37        0.0000000000        45.000000000       -45.000000000    
 HO_46.38        0.0000000000        45.000000000       -45.000000000    
 HO_46.39        0.0000000000        45.000000000       -45.000000000    
 HO_46.40        0.0000000000        45.000000000       -45.000000000    
 HO_46.41        0.0000000000        45.000000000       -45.000000000    
 HO_47.1         0.0000000000        45.000000000       -45.000000000    
 HO_47.2         0.0000000000        45.000000000       -45.000000000    
 HO_47.3         0.0000000000        45.000000000       -45.000000000    
 HO_47.4         0.0000000000        45.000000000       -45.000000000    
 HO_47.5         0.0000000000        45.000000000       -45.000000000    
 HO_47.6         0.0000000000        45.000000000       -45.000000000    
 HO_47.7         0.0000000000        45.000000000       -45.000000000    
 HO_47.8         0.0000000000        45.000000000       -45.000000000    
 HO_47.9         0.0000000000        45.000000000       -45.000000000    
 HO_47.10        0.0000000000        45.000000000       -45.000000000    
 HO_47.11        0.0000000000        45.000000000       -45.000000000    
 HO_47.12        0.0000000000        45.000000000       -45.000000000    
 HO_47.13        0.0000000000        45.000000000       -45.000000000    
 HO_47.14        0.0000000000        45.000000000       -45.000000000    
 HO_47.15        0.0000000000        45.000000000       -45.000000000    
 HO_47.16        0.0000000000        45.000000000       -45.000000000    
 HO_47.17        0.0000000000        45.000000000       -45.000000000    
 HO_47.18        0.0000000000        45.000000000       -45.000000000    
 HO_47.19        0.0000000000        45.000000000       -45.000000000    
 HO_47.20        0.0000000000        45.000000000       -45.000000000    
 HO_47.21        0.0000000000        45.000000000       -45.000000000    
 HO_47.22        0.0000000000        45.000000000       -45.000000000    
 HO_47.23        0.0000000000        45.000000000       -45.000000000    
 HO_47.24        0.0000000000        45.000000000       -45.000000000    
 HO_47.25        0.0000000000        45.000000000       -45.000000000    
 HO_47.26        0.0000000000        45.000000000       -45.000000000    
 HO_47.27        0.0000000000        45.000000000       -45.000000000    
 HO_47.28        0.0000000000        45.000000000       -45.000000000    
 HO_47.29        0.0000000000        45.000000000       -45.000000000    
 HO_47.30        0.0000000000        45.000000000       -45.000000000    
 HO_47.31        0.0000000000        45.000000000       -45.000000000    
 HO_47.32        0.0000000000        45.000000000       -45.000000000    
 HO_47.33        0.0000000000        45.000000000       -45.000000000    
 HO_47.34        0.0000000000        45.000000000       -45.000000000    
 HO_47.35        0.0000000000        44.999996185       -44.999996185    
 HO_47.36        0.0000000000        44.999996185       -44.999996185    
 HO_47.37        0.0000000000        44.999996185       -44.999996185    
 HO_47.38        0.0000000000        44.999996185       -44.999996185    
 HO_47.39        0.0000000000        44.999992371       -44.999992371    
 HO_47.40        0.0000000000        44.999992371       -44.999992371    
 HO_47.41        0.0000000000        44.999988556       -44.999988556    
 HO_48.1         0.0000000000        45.000000000       -45.000000000    
 HO_48.2         0.0000000000        45.000000000       -45.000000000    
 HO_48.3         0.0000000000        45.000000000       -45.000000000    
 HO_48.4         0.0000000000        45.000000000       -45.000000000    
 HO_48.5         0.0000000000        45.000000000       -45.000000000    
 HO_48.6         0.0000000000        45.000000000       -45.000000000    
 HO_48.7         0.0000000000        45.000000000       -45.000000000    
 HO_48.8         0.0000000000        45.000000000       -45.000000000    
 HO_48.9         0.0000000000        45.000000000       -45.000000000    
 HO_48.10        0.0000000000        45.000000000       -45.000000000    
 HO_48.11        0.0000000000        45.000000000       -45.000000000    
 HO_48.12        0.0000000000        45.000000000       -45.000000000    
 HO_48.13        0.0000000000        45.000000000       -45.000000000    
 HO_48.14        0.0000000000        45.000000000       -45.000000000    
 HO_48.15        0.0000000000        45.000000000       -45.000000000    
 HO_48.16        0.0000000000        45.000000000       -45.000000000    
 HO_48.17        0.0000000000        45.000000000       -45.000000000    
 HO_48.18        0.0000000000        45.000000000       -45.000000000    
 HO_48.19        0.0000000000        45.000000000       -45.000000000    
 HO_48.20        0.0000000000        45.000000000       -45.000000000    
 HO_48.21        0.0000000000        45.000000000       -45.000000000    
 HO_48.22        0.0000000000        45.000000000       -45.000000000    
 HO_48.23        0.0000000000        45.000000000       -45.000000000    
 HO_48.24        0.0000000000        45.000000000       -45.000000000    
 HO_48.25        0.0000000000        45.000000000       -45.000000000    
 HO_48.26        0.0000000000        45.000000000       -45.000000000    
 HO_48.27        0.0000000000        45.000000000       -45.000000000    
 HO_48.28        0.0000000000        45.000000000       -45.000000000    
 HO_48.29        0.0000000000        44.999996185       -44.999996185    
 HO_48.30        0.0000000000        44.999996185       -44.999996185    
 HO_48.31        0.0000000000        44.999996185       -44.999996185    
 HO_48.32        0.0000000000        44.999996185       -44.999996185    
 HO_48.33        0.0000000000        44.999992371       -44.999992371    
 HO_48.34        0.0000000000        44.999992371       -44.999992371    
 HO_48.35        0.0000000000        44.999988556       -44.999988556    
 HO_48.36        0.0000000000        44.999984741       -44.999984741    
 HO_48.37        0.0000000000        44.999980927       -44.999980927    
 HO_48.38        0.0000000000        44.999977112       -44.999977112    
 HO_48.39        0.0000000000        44.999969482       -44.999969482    
 HO_48.40        0.0000000000        44.999965668       -44.999965668    
 HO_48.41        0.0000000000        44.999954224       -44.999954224    

 HEAD/DRAWDOWN SUM OF SQUARED DIFFERENCE:    3.92716E+06

 Run end date and time (yyyy/mm/dd hh:mm:ss): 2019/01/08 12:46:34
 Elapsed run time:  0.437 Seconds

