                                  MODFLOW-2005     
      U.S. GEOLOGICAL SURVEY MODULAR FINITE-DIFFERENCE GROUND-WATER FLOW MODEL
                            VERSION 1.11.00 8/8/2013

 LIST FILE: dewater_pest.list
                         UNIT    2

 OPENING dewater_pest.dis
 FILE TYPE:DIS   UNIT   11   STATUS:OLD    
 FORMAT:FORMATTED              ACCESS:SEQUENTIAL          

 OPENING dewater_pest.bas
 FILE TYPE:BAS6   UNIT   13   STATUS:OLD    
 FORMAT:FORMATTED              ACCESS:SEQUENTIAL          

 OPENING dewater_pest.bcf
 FILE TYPE:BCF6   UNIT   15   STATUS:OLD    
 FORMAT:FORMATTED              ACCESS:SEQUENTIAL          

 OPENING dewater_pest.pcg
 FILE TYPE:PCG   UNIT   27   STATUS:OLD    
 FORMAT:FORMATTED              ACCESS:SEQUENTIAL          

 OPENING dewater_pest.wel
 FILE TYPE:WEL   UNIT   20   STATUS:OLD    
 FORMAT:FORMATTED              ACCESS:SEQUENTIAL          

 OPENING dewater_pest.oc
 FILE TYPE:OC   UNIT   14   STATUS:OLD    
 FORMAT:FORMATTED              ACCESS:SEQUENTIAL          

 OPENING dewater_pest.hds
 FILE TYPE:DATA   UNIT   51   STATUS:REPLACE
 FORMAT:FORMATTED              ACCESS:SEQUENTIAL          

 OPENING dewater_pest.ddn
 FILE TYPE:DATA(BINARY)   UNIT   52   STATUS:REPLACE
 FORMAT:UNFORMATTED            ACCESS:STREAM              

 OPENING dewater_pest.cbc
 FILE TYPE:DATA(BINARY)   UNIT   53   STATUS:REPLACE
 FORMAT:UNFORMATTED            ACCESS:STREAM              

 BAS -- BASIC PACKAGE, VERSION 7, 5/2/2005 INPUT READ FROM UNIT   13

 MODFLOW was compiled using mixed precision
 Precision of REAL variables:           6
 Precision of DOUBLE PRECISION variables:          15

 DISCRETIZATION INPUT DATA READ FROM UNIT   11
 # Discretization file for MODFLOW, generated by Flopy.
    1 LAYERS        20 ROWS        30 COLUMNS
    1 STRESS PERIOD(S) IN SIMULATION
 MODEL TIME UNIT IS DAYS
 MODEL LENGTH UNIT IS UNDEFINED
  Confining bed flag for each layer:
   0



                               DELR
 READING ON UNIT   11 WITH FORMAT: (30E15.6)           



                               DELC
 READING ON UNIT   11 WITH FORMAT: (20E15.6)           

 TOP ELEVATION OF LAYER 1 =   100.000    



             MODEL LAYER BOTTOM EL. FOR LAYER   1
 READING ON UNIT   11 WITH FORMAT: (30E15.6)           


 STRESS PERIOD     LENGTH       TIME STEPS     MULTIPLIER FOR DELT    SS FLAG
 ----------------------------------------------------------------------------
        1         1000.000          1                    1.000         SS

 STEADY-STATE SIMULATION




 # Basic package file for MODFLOW, generated by Flopy.                           
 THE FREE FORMAT OPTION HAS BEEN SELECTED



                     BOUNDARY ARRAY FOR LAYER   1
 READING ON UNIT   13 WITH FORMAT: (30I10)             

 AQUIFER HEAD WILL BE SET TO   0.0000     AT ALL NO-FLOW NODES (IBOUND=0).



                       INITIAL HEAD FOR LAYER   1
 READING ON UNIT   13 WITH FORMAT: (30E15.6)           
 # Output control package file for MODFLOW, generated by Flopy.

 OUTPUT CONTROL IS SPECIFIED ONLY AT TIME STEPS FOR WHICH OUTPUT IS DESIRED
 HEADS WILL BE SAVED WITH FORMAT: (30E15.6)           
 SAVED HEADS WILL BE LABELED
 COMPACT CELL-BY-CELL BUDGET FILES WILL BE WRITTEN
 AUXILIARY DATA WILL BE SAVED IN CELL-BY-CELL BUDGET FILES
 HEAD PRINT FORMAT CODE IS   0    DRAWDOWN PRINT FORMAT CODE IS   0
 HEADS WILL BE SAVED ON UNIT   51    DRAWDOWNS WILL BE SAVED ON UNIT   52

 BCF -- BLOCK-CENTERED FLOW PACKAGE, VERSION 7, 5/2/2005
         INPUT READ FROM UNIT 15
 STEADY-STATE SIMULATION
 HEAD AT CELLS THAT CONVERT TO DRY=   0.0000    
 WETTING CAPABILITY IS ACTIVE
 WETTING FACTOR=   1.00000     WETTING ITERATION INTERVAL=   1
 FLAG THAT SPECIFIES THE EQUATION TO USE FOR HEAD AT WETTED CELLS=   0
      LAYER  LAYER-TYPE CODE     INTERBLOCK T
      --------------------------------------------
         1            0          0 -- HARMONIC    



           COLUMN TO ROW ANISOTROPY
 READING ON UNIT   15 WITH FORMAT: (1E15.6)            



               TRANSMIS. ALONG ROWS FOR LAYER   1
 READING ON UNIT   15 WITH FORMAT: (30E15.6)           

 WEL -- WELL PACKAGE, VERSION 7, 5/2/2005 INPUT READ FROM UNIT   20
 # Well file for MODFLOW, generated by Flopy.
 No named parameters
 MAXIMUM OF      7 ACTIVE WELLS AT ONE TIME


     0 Well parameters

 PCG -- CONJUGATE-GRADIENT SOLUTION PACKAGE, VERSION 7, 5/2/2005
 # PCG for MODFLOW, generated by Flopy.
 MAXIMUM OF     50 CALLS OF SOLUTION ROUTINE
 MAXIMUM OF      5 INTERNAL ITERATIONS PER CALL TO SOLUTION ROUTINE
 MATRIX PRECONDITIONING TYPE :    1



                                    SOLUTION BY THE CONJUGATE-GRADIENT METHOD
                                   -------------------------------------------
                    MAXIMUM NUMBER OF CALLS TO PCG ROUTINE =       50
                        MAXIMUM ITERATIONS PER CALL TO PCG =        5
                               MATRIX PRECONDITIONING TYPE =        1
        RELAXATION FACTOR (ONLY USED WITH PRECOND. TYPE 1) =    0.10000E+01
 PARAMETER OF POLYNOMIAL PRECOND. = 2 (2) OR IS CALCULATED :        0
                         HEAD CHANGE CRITERION FOR CLOSURE =    0.10000E-07
                     RESIDUAL CHANGE CRITERION FOR CLOSURE =    0.10000E+01
            PCG HEAD AND RESIDUAL CHANGE PRINTOUT INTERVAL =        1
     PRINTING FROM SOLVER IS LIMITED(1) OR SUPPRESSED (>1) =        0
                            STEADY-STATE DAMPING PARAMETER =    0.10000E+01
                               TRANSIENT DAMPING PARAMETER =    0.10000E+01
1
                            STRESS PERIOD NO.    1, LENGTH =   1000.000    
                            -----------------------------------------------

                              NUMBER OF TIME STEPS =     1

                               MULTIPLIER FOR DELT =     1.000

                            INITIAL TIME STEP SIZE =   1000.000    

 WELL NO.  LAYER   ROW   COL   STRESS RATE         
 --------------------------------------------------
      1      1      7     14      -0.000    
      2      1      7     16      -0.000    
      3      1      8     15     -0.1000E+05
      4      1      9     14      -0.000    
      5      1      9     16      -0.000    
      6      1     11     17      -0.000    
      7      1     13     16      -0.000    

      7 WELLS

 SOLVING FOR HEAD 


    11 CALLS TO PCG ROUTINE FOR TIME STEP   1 IN STRESS PERIOD    1
    50 TOTAL ITERATIONS

 MAXIMUM HEAD CHANGE FOR EACH ITERATION (1 INDICATES THE FIRST INNER ITERATION):

    HEAD CHANGE    HEAD CHANGE    HEAD CHANGE    HEAD CHANGE    HEAD CHANGE 
   LAYER,ROW,COL  LAYER,ROW,COL  LAYER,ROW,COL  LAYER,ROW,COL  LAYER,ROW,COL
 ---------------------------------------------------------------------------
  1  -81.13      0  -56.98      0  -17.49      0  -8.962      0   4.732    
   (  1,  8, 15)  (  1,  8, 15)  (  1,  1, 23)  (  1,  6, 17)  (  1,  1, 13)
  1  -1.988      0  -1.674      0  -1.185      0  0.9245      0  0.3066    
   (  1,  5, 17)  (  1,  9, 14)  (  1,  5, 19)  (  1,  1, 14)  (  1,  2, 11)
  1 -0.4289      0 -0.3351      0 -0.1035      0 -0.6156E-01  0 -0.3141E-01
   (  1,  8, 15)  (  1,  8, 15)  (  1,  8, 15)  (  1,  6, 17)  (  1,  9, 14)
  1 -0.1731E-01  0 -0.1254E-01  0 -0.1120E-01  0  0.8046E-02  0 -0.2723E-02
   (  1,  6, 17)  (  1,  9, 14)  (  1,  5, 18)  (  1,  1, 14)  (  1,  3, 20)
  1 -0.3831E-02  0 -0.2873E-02  0 -0.9082E-03  0 -0.5532E-03  0 -0.2855E-03
   (  1,  8, 15)  (  1,  4, 19)  (  1,  1, 23)  (  1,  6, 17)  (  1,  9, 14)
  1 -0.1674E-03  0 -0.1143E-03  0 -0.1090E-03  0  0.7656E-04  0 -0.2523E-04
   (  1,  6, 17)  (  1,  9, 14)  (  1,  5, 18)  (  1,  1, 14)  (  1,  2, 21)
  1 -0.3622E-04  0 -0.2751E-04  0 -0.9118E-05  0 -0.5247E-05  0 -0.2691E-05
   (  1,  8, 15)  (  1,  4, 19)  (  1, 12, 11)  (  1,  6, 17)  (  1,  9, 14)
  1 -0.1649E-05  0  0.1107E-05  0 -0.1074E-05  0  0.7363E-06  0  0.2534E-06
   (  1,  6, 17)  (  1,  8, 20)  (  1,  5, 18)  (  1,  1, 14)  (  1, 13, 20)
  1 -0.3501E-06  0 -0.2666E-06  0 -0.9414E-07  0 -0.5117E-07  0 -0.2584E-07
   (  1,  8, 15)  (  1,  4, 19)  (  1, 12, 11)  (  1,  6, 17)  (  1,  9, 14)
  1 -0.1645E-07  0  0.1135E-07  0 -0.1064E-07  0  0.7099E-08  1 -0.2552E-08
   (  1,  5, 16)  (  1,  8, 20)  (  1,  5, 18)  (  1,  1, 14)  (  1,  4, 19)

 MAXIMUM RESIDUAL FOR EACH ITERATION (1 INDICATES THE FIRST INNER ITERATION):

    RESIDUAL       RESIDUAL       RESIDUAL       RESIDUAL       RESIDUAL    
   LAYER,ROW,COL  LAYER,ROW,COL  LAYER,ROW,COL  LAYER,ROW,COL  LAYER,ROW,COL
 ---------------------------------------------------------------------------
  1   7101.      0   2844.      0   934.1      0   648.9      0   404.2    
   (  1,  8, 15)  (  1,  8, 15)  (  1,  8, 15)  (  1,  9, 14)  (  1,  7, 16)
  1   331.8      0   162.7      0   95.00      0   72.03      0   52.51    
   (  1,  9, 14)  (  1,  7, 16)  (  1,  8, 15)  (  1,  8, 15)  (  1,  8, 15)
  1   39.93      0   15.36      0   7.060      0   5.315      0   3.299    
   (  1,  8, 15)  (  1,  8, 15)  (  1,  9, 14)  (  1,  9, 14)  (  1,  7, 16)
  1   2.678      0   1.290      0  0.7470      0  0.5955      0  0.4248    
   (  1,  9, 14)  (  1,  9, 14)  (  1,  8, 15)  (  1,  8, 15)  (  1,  8, 15)
  1  0.3206      0  0.1234      0  0.6096E-01  0  0.4735E-01  0  0.2907E-01
   (  1,  8, 15)  (  1,  8, 15)  (  1,  9, 14)  (  1,  9, 14)  (  1,  7, 16)
  1  0.2354E-01  0  0.1119E-01  0  0.6466E-02  0  0.5270E-02  0  0.3754E-02
   (  1,  9, 14)  (  1,  7, 16)  (  1,  8, 15)  (  1,  8, 15)  (  1,  8, 15)
  1  0.2808E-02  0  0.1067E-02  0  0.5448E-03  0  0.4344E-03  0  0.2664E-03
   (  1,  8, 15)  (  1,  8, 15)  (  1,  9, 14)  (  1,  9, 14)  (  1,  7, 16)
  1  0.2157E-03  0  0.1014E-03  0  0.5827E-04  0  0.4840E-04  0  0.3459E-04
   (  1,  9, 14)  (  1,  7, 16)  (  1,  8, 15)  (  1,  8, 15)  (  1,  8, 15)
  1  0.2567E-04  0  0.9610E-05  0  0.4994E-05  0  0.4070E-05  0  0.2501E-05
   (  1,  8, 15)  (  1,  8, 15)  (  1,  9, 14)  (  1,  9, 14)  (  1,  7, 16)
  1  0.2025E-05  0  0.9437E-06  0  0.5385E-06  0  0.4549E-06  1  0.3649E-06
   (  1,  9, 14)  (  1,  7, 16)  (  1,  8, 15)  (  1,  8, 15)  (  1,  8, 15)



 OUTPUT CONTROL FOR STRESS PERIOD    1   TIME STEP    1
    SAVE HEAD FOR ALL LAYERS

 HEAD WILL BE SAVED ON UNIT   51 AT END OF TIME STEP    1, STRESS PERIOD    1
1
  VOLUMETRIC BUDGET FOR ENTIRE MODEL AT END OF TIME STEP    1, STRESS PERIOD   1
  ------------------------------------------------------------------------------

     CUMULATIVE VOLUMES      L**3       RATES FOR THIS TIME STEP      L**3/T
     ------------------                 ------------------------

           IN:                                      IN:
           ---                                      ---
             STORAGE =           0.0000               STORAGE =           0.0000
       CONSTANT HEAD =    10000000.0000         CONSTANT HEAD =       10000.0000
               WELLS =           0.0000                 WELLS =           0.0000

            TOTAL IN =    10000000.0000              TOTAL IN =       10000.0000

          OUT:                                     OUT:
          ----                                     ----
             STORAGE =           0.0000               STORAGE =           0.0000
       CONSTANT HEAD =           0.0000         CONSTANT HEAD =           0.0000
               WELLS =    10000000.0000                 WELLS =       10000.0000

           TOTAL OUT =    10000000.0000             TOTAL OUT =       10000.0000

            IN - OUT =           0.0000              IN - OUT =           0.0000

 PERCENT DISCREPANCY =           0.00     PERCENT DISCREPANCY =           0.00






         TIME SUMMARY AT END OF TIME STEP    1 IN STRESS PERIOD    1
                    SECONDS     MINUTES      HOURS       DAYS        YEARS
                    -----------------------------------------------------------
   TIME STEP LENGTH 8.64000E+07 1.44000E+06  24000.      1000.0      2.7379    
 STRESS PERIOD TIME 8.64000E+07 1.44000E+06  24000.      1000.0      2.7379    
         TOTAL TIME 8.64000E+07 1.44000E+06  24000.      1000.0      2.7379    
1

 Run end date and time (yyyy/mm/dd hh:mm:ss): 2016/06/22 14:38:50
 Elapsed run time:  0.004 Seconds

