                                  MODFLOW-2005     
      U.S. GEOLOGICAL SURVEY MODULAR FINITE-DIFFERENCE GROUND-WATER FLOW MODEL
                            VERSION 1.11.00 8/8/2013

 LIST FILE: dewater_pest.list
                         UNIT    2

 OPENING dewater_pest.dis
 FILE TYPE:DIS   UNIT   11   STATUS:OLD    
 FORMAT:FORMATTED              ACCESS:SEQUENTIAL          

 OPENING dewater_pest.bas
 FILE TYPE:BAS6   UNIT   13   STATUS:OLD    
 FORMAT:FORMATTED              ACCESS:SEQUENTIAL          

 OPENING dewater_pest.bcf
 FILE TYPE:BCF6   UNIT   15   STATUS:OLD    
 FORMAT:FORMATTED              ACCESS:SEQUENTIAL          

 OPENING dewater_pest.pcg
 FILE TYPE:PCG   UNIT   27   STATUS:OLD    
 FORMAT:FORMATTED              ACCESS:SEQUENTIAL          

 OPENING dewater_pest.wel
 FILE TYPE:WEL   UNIT   20   STATUS:OLD    
 FORMAT:FORMATTED              ACCESS:SEQUENTIAL          

 OPENING dewater_pest.oc
 FILE TYPE:OC   UNIT   14   STATUS:OLD    
 FORMAT:FORMATTED              ACCESS:SEQUENTIAL          

 OPENING dewater_pest.hds
 FILE TYPE:DATA   UNIT   51   STATUS:REPLACE
 FORMAT:FORMATTED              ACCESS:SEQUENTIAL          

 OPENING dewater_pest.ddn
 FILE TYPE:DATA(BINARY)   UNIT   52   STATUS:REPLACE
 FORMAT:UNFORMATTED            ACCESS:STREAM              

 OPENING dewater_pest.cbc
 FILE TYPE:DATA(BINARY)   UNIT   53   STATUS:REPLACE
 FORMAT:UNFORMATTED            ACCESS:STREAM              

 BAS -- BASIC PACKAGE, VERSION 7, 5/2/2005 INPUT READ FROM UNIT   13

 MODFLOW was compiled using mixed precision
 Precision of REAL variables:           6
 Precision of DOUBLE PRECISION variables:          15

 DISCRETIZATION INPUT DATA READ FROM UNIT   11
 # Discretization file for MODFLOW, generated by Flopy.
    1 LAYERS        20 ROWS        30 COLUMNS
    1 STRESS PERIOD(S) IN SIMULATION
 MODEL TIME UNIT IS DAYS
 MODEL LENGTH UNIT IS UNDEFINED
  Confining bed flag for each layer:
   0



                               DELR
 READING ON UNIT   11 WITH FORMAT: (30E15.6)           



                               DELC
 READING ON UNIT   11 WITH FORMAT: (20E15.6)           

 TOP ELEVATION OF LAYER 1 =   100.000    



             MODEL LAYER BOTTOM EL. FOR LAYER   1
 READING ON UNIT   11 WITH FORMAT: (30E15.6)           


 STRESS PERIOD     LENGTH       TIME STEPS     MULTIPLIER FOR DELT    SS FLAG
 ----------------------------------------------------------------------------
        1         1000.000          1                    1.000         SS

 STEADY-STATE SIMULATION




 # Basic package file for MODFLOW, generated by Flopy.                           
 THE FREE FORMAT OPTION HAS BEEN SELECTED



                     BOUNDARY ARRAY FOR LAYER   1
 READING ON UNIT   13 WITH FORMAT: (30I10)             

 AQUIFER HEAD WILL BE SET TO   0.0000     AT ALL NO-FLOW NODES (IBOUND=0).



                       INITIAL HEAD FOR LAYER   1
 READING ON UNIT   13 WITH FORMAT: (30E15.6)           
 # Output control package file for MODFLOW, generated by Flopy.

 OUTPUT CONTROL IS SPECIFIED ONLY AT TIME STEPS FOR WHICH OUTPUT IS DESIRED
 HEADS WILL BE SAVED WITH FORMAT: (30E15.6)           
 SAVED HEADS WILL BE LABELED
 COMPACT CELL-BY-CELL BUDGET FILES WILL BE WRITTEN
 AUXILIARY DATA WILL BE SAVED IN CELL-BY-CELL BUDGET FILES
 HEAD PRINT FORMAT CODE IS   0    DRAWDOWN PRINT FORMAT CODE IS   0
 HEADS WILL BE SAVED ON UNIT   51    DRAWDOWNS WILL BE SAVED ON UNIT   52

 BCF -- BLOCK-CENTERED FLOW PACKAGE, VERSION 7, 5/2/2005
         INPUT READ FROM UNIT 15
 STEADY-STATE SIMULATION
 HEAD AT CELLS THAT CONVERT TO DRY=   0.0000    
 WETTING CAPABILITY IS ACTIVE
 WETTING FACTOR=   1.00000     WETTING ITERATION INTERVAL=   1
 FLAG THAT SPECIFIES THE EQUATION TO USE FOR HEAD AT WETTED CELLS=   0
      LAYER  LAYER-TYPE CODE     INTERBLOCK T
      --------------------------------------------
         1            0          0 -- HARMONIC    



           COLUMN TO ROW ANISOTROPY
 READING ON UNIT   15 WITH FORMAT: (1E15.6)            



               TRANSMIS. ALONG ROWS FOR LAYER   1
 READING ON UNIT   15 WITH FORMAT: (30E15.6)           

 WEL -- WELL PACKAGE, VERSION 7, 5/2/2005 INPUT READ FROM UNIT   20
 # Well file for MODFLOW, generated by Flopy.
 No named parameters
 MAXIMUM OF      7 ACTIVE WELLS AT ONE TIME


     0 Well parameters

 PCG -- CONJUGATE-GRADIENT SOLUTION PACKAGE, VERSION 7, 5/2/2005
 # PCG for MODFLOW, generated by Flopy.
 MAXIMUM OF     50 CALLS OF SOLUTION ROUTINE
 MAXIMUM OF      5 INTERNAL ITERATIONS PER CALL TO SOLUTION ROUTINE
 MATRIX PRECONDITIONING TYPE :    1



                                    SOLUTION BY THE CONJUGATE-GRADIENT METHOD
                                   -------------------------------------------
                    MAXIMUM NUMBER OF CALLS TO PCG ROUTINE =       50
                        MAXIMUM ITERATIONS PER CALL TO PCG =        5
                               MATRIX PRECONDITIONING TYPE =        1
        RELAXATION FACTOR (ONLY USED WITH PRECOND. TYPE 1) =    0.10000E+01
 PARAMETER OF POLYNOMIAL PRECOND. = 2 (2) OR IS CALCULATED :        0
                         HEAD CHANGE CRITERION FOR CLOSURE =    0.10000E-07
                     RESIDUAL CHANGE CRITERION FOR CLOSURE =    0.10000E+01
            PCG HEAD AND RESIDUAL CHANGE PRINTOUT INTERVAL =        1
     PRINTING FROM SOLVER IS LIMITED(1) OR SUPPRESSED (>1) =        0
                            STEADY-STATE DAMPING PARAMETER =    0.10000E+01
                               TRANSIENT DAMPING PARAMETER =    0.10000E+01
1
                            STRESS PERIOD NO.    1, LENGTH =   1000.000    
                            -----------------------------------------------

                              NUMBER OF TIME STEPS =     1

                               MULTIPLIER FOR DELT =     1.000

                            INITIAL TIME STEP SIZE =   1000.000    

 WELL NO.  LAYER   ROW   COL   STRESS RATE         
 --------------------------------------------------
      1      1      7     14      -0.000    
      2      1      7     16      -0.000    
      3      1      8     15      -0.000    
      4      1      9     14      -0.000    
      5      1      9     16      -0.000    
      6      1     11     17      -0.000    
      7      1     13     16      -0.000    

      7 WELLS

 SOLVING FOR HEAD 


     9 CALLS TO PCG ROUTINE FOR TIME STEP   1 IN STRESS PERIOD    1
    41 TOTAL ITERATIONS

 MAXIMUM HEAD CHANGE FOR EACH ITERATION (1 INDICATES THE FIRST INNER ITERATION):

    HEAD CHANGE    HEAD CHANGE    HEAD CHANGE    HEAD CHANGE    HEAD CHANGE 
   LAYER,ROW,COL  LAYER,ROW,COL  LAYER,ROW,COL  LAYER,ROW,COL  LAYER,ROW,COL
 ---------------------------------------------------------------------------
  1  -10.74      0   4.842      0   4.446      0   2.264      0   1.207    
   (  1,  9, 29)  (  1,  1, 14)  (  1,  1, 20)  (  1, 13, 12)  (  1, 17, 10)
  1 -0.4874      0  0.3754      0  0.2111      0  0.7815E-01  0  0.8678E-01
   (  1, 10, 18)  (  1, 20,  9)  (  1, 20, 16)  (  1, 10, 13)  (  1,  2, 14)
  1 -0.1876E-01  0  0.1912E-01  0  0.1506E-01  0  0.8832E-02  0  0.4920E-02
   (  1, 10, 21)  (  1,  4, 16)  (  1,  8, 11)  (  1,  4, 21)  (  1,  4, 12)
  1 -0.2364E-02  0  0.1803E-02  0  0.7813E-03  0  0.3300E-03  0  0.2376E-03
   (  1,  8, 16)  (  1, 18,  9)  (  1,  6, 21)  (  1, 11, 13)  (  1,  2, 15)
  1  0.9859E-04  0 -0.9982E-04  0 -0.7786E-04  0  0.5784E-04  0  0.2739E-04
   (  1, 10, 15)  (  1, 16, 20)  (  1,  8, 22)  (  1,  1, 16)  (  1,  5, 13)
  1 -0.1440E-04  0  0.1135E-04  0  0.6064E-05  0  0.2325E-05  0 -0.8782E-06
   (  1,  8, 17)  (  1, 18, 10)  (  1,  4, 20)  (  1, 11, 13)  (  1, 14, 19)
  1  0.5993E-06  0 -0.6783E-06  0 -0.5081E-06  0  0.4078E-06  0  0.1788E-06
   (  1,  9, 15)  (  1, 16, 20)  (  1,  8, 23)  (  1,  2, 18)  (  1,  5, 13)
  1 -0.9836E-07  0  0.7528E-07  0  0.4096E-07  0  0.1578E-07  0 -0.6536E-08
   (  1,  8, 17)  (  1, 18, 10)  (  1,  4, 19)  (  1, 11, 14)  (  1, 14, 19)
  1  0.4246E-08
   (  1,  9, 15)

 MAXIMUM RESIDUAL FOR EACH ITERATION (1 INDICATES THE FIRST INNER ITERATION):

    RESIDUAL       RESIDUAL       RESIDUAL       RESIDUAL       RESIDUAL    
   LAYER,ROW,COL  LAYER,ROW,COL  LAYER,ROW,COL  LAYER,ROW,COL  LAYER,ROW,COL
 ---------------------------------------------------------------------------
  1   290.5      0   210.9      0  -99.77      0  -92.86      0  -46.50    
   (  1,  1, 29)  (  1,  1, 29)  (  1,  2, 29)  (  1,  2, 29)  (  1,  2, 29)
  1  -33.48      0   18.24      0   6.980      0  -3.199      0  -1.843    
   (  1,  2, 29)  (  1,  2, 28)  (  1,  2, 28)  (  1,  3, 28)  (  1,  2, 27)
  1  -1.157      0 -0.7115      0  0.4515      0  0.3121      0 -0.1656    
   (  1,  4,  2)  (  1,  4,  2)  (  1,  2, 28)  (  1,  2, 28)  (  1,  2, 29)
  1 -0.1274      0  0.3733E-01  0 -0.1948E-01  0 -0.1396E-01  0 -0.8566E-02
   (  1,  2, 29)  (  1,  2, 28)  (  1,  9,  2)  (  1,  9,  2)  (  1,  8,  2)
  1 -0.6760E-02  0 -0.3885E-02  0 -0.2602E-02  0 -0.1512E-02  0 -0.9579E-03
   (  1,  5,  2)  (  1,  1,  2)  (  1,  3, 26)  (  1,  2, 29)  (  1,  2, 29)
  1 -0.7486E-03  0  0.2082E-03  0 -0.1264E-03  0 -0.8821E-04  0 -0.5940E-04
   (  1,  2, 29)  (  1,  2, 28)  (  1,  2,  2)  (  1,  3,  2)  (  1,  3,  2)
  1 -0.4768E-04  0 -0.2656E-04  0 -0.1547E-04  0 -0.9709E-05  0 -0.6034E-05
   (  1,  3,  2)  (  1,  1,  2)  (  1,  3, 26)  (  1,  2, 29)  (  1,  2, 29)
  1 -0.4720E-05  0 -0.1339E-05  0 -0.8724E-06  0 -0.6039E-06  0 -0.4089E-06
   (  1,  2, 29)  (  1,  2,  2)  (  1,  1,  2)  (  1,  3,  2)  (  1,  3,  2)
  1 -0.3291E-06
   (  1,  3,  2)



 OUTPUT CONTROL FOR STRESS PERIOD    1   TIME STEP    1
    SAVE HEAD FOR ALL LAYERS

 HEAD WILL BE SAVED ON UNIT   51 AT END OF TIME STEP    1, STRESS PERIOD    1
1
  VOLUMETRIC BUDGET FOR ENTIRE MODEL AT END OF TIME STEP    1, STRESS PERIOD   1
  ------------------------------------------------------------------------------

     CUMULATIVE VOLUMES      L**3       RATES FOR THIS TIME STEP      L**3/T
     ------------------                 ------------------------

           IN:                                      IN:
           ---                                      ---
             STORAGE =           0.0000               STORAGE =           0.0000
       CONSTANT HEAD =      689655.1250         CONSTANT HEAD =         689.6552
               WELLS =           0.0000                 WELLS =           0.0000

            TOTAL IN =      689655.1250              TOTAL IN =         689.6552

          OUT:                                     OUT:
          ----                                     ----
             STORAGE =           0.0000               STORAGE =           0.0000
       CONSTANT HEAD =      689655.1250         CONSTANT HEAD =         689.6552
               WELLS =           0.0000                 WELLS =           0.0000

           TOTAL OUT =      689655.1250             TOTAL OUT =         689.6552

            IN - OUT =           0.0000              IN - OUT =           0.0000

 PERCENT DISCREPANCY =           0.00     PERCENT DISCREPANCY =           0.00






         TIME SUMMARY AT END OF TIME STEP    1 IN STRESS PERIOD    1
                    SECONDS     MINUTES      HOURS       DAYS        YEARS
                    -----------------------------------------------------------
   TIME STEP LENGTH 8.64000E+07 1.44000E+06  24000.      1000.0      2.7379    
 STRESS PERIOD TIME 8.64000E+07 1.44000E+06  24000.      1000.0      2.7379    
         TOTAL TIME 8.64000E+07 1.44000E+06  24000.      1000.0      2.7379    
1

 Run end date and time (yyyy/mm/dd hh:mm:ss): 2016/06/22 13:31:59
 Elapsed run time:  0.004 Seconds

