                                   MODFLOW 6
                U.S. GEOLOGICAL SURVEY MODULAR HYDROLOGIC MODEL
                   VERSION 6.4.0 release candidate 11/02/2022
                               ***DEVELOP MODE***

   MODFLOW 6 compiled Nov 02 2022 03:56:54 with Intel(R) Fortran Intel(R) 64
   Compiler Classic for applications running on Intel(R) 64, Version 2021.6.0
                             Build 20220226_000000

This software is preliminary or provisional and is subject to 
revision. It is being provided to meet the need for timely best 
science. The software has not received final approval by the U.S. 
Geological Survey (USGS). No warranty, expressed or implied, is made 
by the USGS or the U.S. Government as to the functionality of the 
software and related material nor shall the fact of release 
constitute any such warranty. The software is provided on the 
condition that neither the USGS nor the U.S. Government shall be held 
liable for any damages resulting from the authorized or unauthorized 
use of the software.


As a work of the United States Government, this USGS product is 
in the public domain within the United States. You can copy, 
modify, distribute, and perform the work, even for commercial 
purposes, all without asking permission. Additionally, USGS 
waives copyright and related rights in the work worldwide 
through CC0 1.0 Universal Public Domain Dedication 
(https://creativecommons.org/publicdomain/zero/1.0/).

The following GNU Lesser General Public License (LGPL) libraries
are used in this USGS product:

    SPARSKIT version 2.0
      ilut, luson, and qsplit 
      (https://www-users.cse.umn.edu/~saad/software/SPARSKIT/)

    RCM - Reverse Cuthill McKee Ordering
      (https://people.math.sc.edu/Burkardt/f_src/rcm/rcm.html)

    BLAS - Basic Linear Algebra Subprograms Level 1
      (https://people.math.sc.edu/Burkardt/f_src/blas1_d/blas1_d.html)

    SPARSEKIT - Sparse Matrix Utility Package
      amux, dperm, dvperm, rperm, and cperm
      (https://people.sc.fsu.edu/~jburkardt/f77_src/sparsekit/sparsekit.html)

The following BSD-3 License libraries are used in this USGS product:

    Modern Fortran DAG Library
      Copyright (c) 2018, Jacob Williams
      All rights reserved.
      (https://github.com/jacobwilliams/daglib)

MODFLOW 6 compiler options: /Isrc\libmf6core.a.p /Isrc /I..\src
/Isrc\libmf6_external.a.p /MTd /nologo /warn:general /warn:truncated_source
/stand:f08 /Zi /traceback /O2 /Zi /fpe:0 /heap-arrays:0 /traceback /fpp
/Qdiag-disable:7416 /Qdiag-disable:7025 /Qdiag-disable:5268
/Fdsrc\libmf6core.a.p\Utilities_compilerversion.F90.pdb
/module:src\libmf6core.a.p
/Fosrc/libmf6core.a.p/Utilities_compilerversion.F90.obj /c

System command used to initiate simulation:
mf6

MODFLOW was compiled using uniform precision.

Real Variables
  KIND: 8
  TINY (smallest non-zero value):    2.225074-308
  HUGE (largest value):    1.797693+308
  PRECISION: 15
  BIT SIZE: 64

Integer Variables
  KIND: 4
  HUGE (largest value): 2147483647
  BIT SIZE: 32

Long Integer Variables
  KIND: 8
  HUGE (largest value): 9223372036854775807
  BIT SIZE: 64

Logical Variables
  KIND: 4
  BIT SIZE: 32
 

 OPENED mfsim.nam
 FILE TYPE:NAM   UNIT 1001   STATUS:OLD                 
 FORMAT:FORMATTED              ACCESS:SEQUENTIAL          
 ACTION:READ                

 # File generated by Flopy version 3.3.6 on 12/30/2022 at 13:26:47.

 READING SIMULATION OPTIONS
 END OF SIMULATION OPTIONS

 READING SIMULATION TIMING

 OPENED project.tdis
 FILE TYPE:TDIS   UNIT 1002   STATUS:OLD                 
 FORMAT:FORMATTED              ACCESS:SEQUENTIAL          
 ACTION:READ                


 TDIS -- TEMPORAL DISCRETIZATION PACKAGE,
 VERSION 1 : 11/13/2014 - INPUT READ FROM UNIT 1002
 # File generated by Flopy version 3.3.6 on 12/30/2022 at 13:26:47.
 PROCESSING TDIS OPTIONS
    SIMULATION TIME UNIT IS DAYS
 END OF TDIS OPTIONS
 PROCESSING TDIS DIMENSIONS
    1 STRESS PERIOD(S) IN SIMULATION
 END OF TDIS DIMENSIONS
 PROCESSING TDIS PERIODDATA


 STRESS PERIOD     LENGTH       TIME STEPS     MULTIPLIER FOR DELT
 ----------------------------------------------------------------------------
        1         1.000000          1                    1.000
 END OF TDIS PERIODDATA
 END OF SIMULATION TIMING

 READING SIMULATION MODELS
    GWF6 model PROJECT will be created as model 1
 END OF SIMULATION MODELS

 READING SIMULATION EXCHANGES
 END OF SIMULATION EXCHANGES

 READING SOLUTIONGROUP

 Creating solution: SLN_1           

 OPENED project.ims
 FILE TYPE:IMS   UNIT 1026   STATUS:OLD                 
 FORMAT:FORMATTED              ACCESS:SEQUENTIAL          
 ACTION:READ                

 END OF SIMULATION SOLUTIONGROUP

PROCESSING MODEL CONNECTIONS

 IMS -- ITERATIVE MODEL SOLUTION PACKAGE, VERSION 6, 4/28/2017
         INPUT READ FROM UNIT 1026
 # File generated by Flopy version 3.3.6 on 12/30/2022 at 13:26:47.

 PROCESSING IMS OPTIONS
 END OF IMS OPTIONS

 PROCESSING IMS NONLINEAR
 END OF IMS NONLINEAR DATA
 ***UNDER-RELAXATION WILL NOT BE USED***
 
 ***IMS LINEAR SOLVER WILL BE USED***

 IMSLINEAR -- UNSTRUCTURED LINEAR SOLUTION PACKAGE, VERSION 8, 04/28/2017

 PROCESSING LINEAR DATA
 END OF LINEAR DATA
 
 An asymmetric matrix will be solved

 OUTER ITERATION CONVERGENCE CRITERION    (DVCLOSE) =    0.100000E-02
 MAXIMUM NUMBER OF OUTER ITERATIONS        (MXITER) = 200
 SOLVER PRINTOUT INDEX                     (IPRIMS) = 2
 NONLINEAR ITERATION METHOD            (NONLINMETH) = 0
 LINEAR SOLUTION METHOD                   (LINMETH) = 1

       SOLUTION BY THE BICONJUGATE-GRADIENT STABILIZED METHOD
 ------------------------------------------------------------------
 MAXIMUM OF 200 CALLS OF SOLUTION ROUTINE
 MAXIMUM OF 100 INTERNAL ITERATIONS PER CALL TO SOLUTION ROUTINE
 LINEAR ACCELERATION METHOD            = BCGS      
 MATRIX PRECONDITIONING TYPE           = INCOMPLETE LU       
 MATRIX SCALING APPROACH               = NO SCALING          
 MATRIX REORDERING APPROACH            = ORIGINAL ORDERING        
 NUMBER OF ORTHOGONALIZATIONS          = 0
 HEAD CHANGE CRITERION FOR CLOSURE     =    0.10000E-02
 RESIDUAL CHANGE CRITERION FOR CLOSURE =    0.10000E+00
 RESIDUAL CONVERGENCE OPTION           = 0
 RESIDUAL CONVERGENCE NORM             = INFINITY NORM   
 RELAXATION FACTOR                     =    0.00000E+00



 
    Solving:  Stress period:     1    Time step:     1
 
1
                            STRESS PERIOD NO. 1, LENGTH =   1.000000    
                            -----------------------------------------------
                            NUMBER OF TIME STEPS = 1
                            MULTIPLIER FOR DELT =     1.000
                            INITIAL TIME STEP SIZE =   1.000000    



 PSEUDO-TRANSIENT CONTINUATION WILL BE APPLIED TO MODEL 1 ("PROJECT") DURING THIS TIME STEP

 SLN_1 OUTER ITERATION SUMMARY
 ----------------------------------------------------------------------------------------------------------
                                OUTER      INNER                    STEP   MAXIMUM CHANGE MODEL-(CELLID) OR
 OUTER ITERATION STEP       ITERATION  ITERATION  MAXIMUM CHANGE SUCCESS             MODEL-PACKAGE-(NUMBER)
 ----------------------------------------------------------------------------------------------------------
 Model                              1         12      -9.0396065                             1_GWF-(1,5019)
 Model                              2         39      -6.8305339                             1_GWF-(1,4386)
 Model                              3         36      -3.0976648                             1_GWF-(1,4386)
 Model                              4         16     -0.34712399                             1_GWF-(1,4386)
 Model                              5          6  6.37530501E-03                             1_GWF-(3,5080)
 Model                              6          1  7.39349255E-04       *                     1_GWF-(3,5091)
 Package                            6            -7.92412254E-04       *           1_GWF-SFR_0-(1000)-stage
 ----------------------------------------------------------------------------------------------------------


 6 CALLS TO NUMERICAL SOLUTION IN TIME STEP 1 STRESS PERIOD 1
 110 TOTAL ITERATIONS

 SLN_1 INNER ITERATION SUMMARY
 --------------------------------------------------------------------------------------------------------------------------------------
      TOTAL      OUTER      INNER                                                            MAXIMUM                                   
  ITERATION  ITERATION  ITERATION  MAXIMUM CHANGE      MAXIMUM CHANGE MODEL-(CELLID)        RESIDUAL    MAXIMUM RESIDUAL MODEL-(CELLID)
 --------------------------------------------------------------------------------------------------------------------------------------
          1          1          1      -9.0380161                     1_GWF-(1,5019)       103.48304                     1_GWF-(2,4824)
          2          1          2      -1.0586910                     1_GWF-(3,4825)       28.688308                     1_GWF-(2,4823)
          3          1          3     -0.46955516                     1_GWF-(2,4824)       12.135357                     1_GWF-(2,4715)
          4          1          4     -0.18887222                     1_GWF-(2,4716)       6.1925139                     1_GWF-(2,4715)
          5          1          5     -0.10097287                     1_GWF-(2,4715)       2.6363532                     1_GWF-(2,4715)
          6          1          6 -4.79672851E-02                     1_GWF-(2,4605)       1.2389828                     1_GWF-(2,4367)
          7          1          7 -2.29774409E-02                     1_GWF-(2,4513)      0.62817091                     1_GWF-(2,4253)
          8          1          8 -1.16425084E-02                     1_GWF-(2,4367)      0.31356499                     1_GWF-(2,4253)
          9          1          9 -5.93021152E-03                     1_GWF-(2,4253)     -0.16522467                       1_GWF-(2,97)
         10          1         10 -3.02088775E-03                     1_GWF-(2,4251)  8.43729025E-02                     1_GWF-(2,3817)
         11          1         11 -1.80486267E-03                     1_GWF-(2,4138)  4.43639568E-02                     1_GWF-(2,3817)
         12          1         12 -9.61899515E-04                     1_GWF-(2,4025)  2.08528590E-02                     1_GWF-(2,3817)
         13          2          1      -1.4036637                     1_GWF-(3,4386)       19.765181                     1_GWF-(2,4823)
         14          2          2     -0.97679794                     1_GWF-(1,4386)      -16.587734                      1_GWF-(2,433)
         15          2          3     -0.73529588                     1_GWF-(1,4386)      -13.531662                      1_GWF-(2,431)
         16          2          4     -0.62431957                     1_GWF-(1,4386)      -10.871519                      1_GWF-(2,328)
         17          2          5     -0.52175828                     1_GWF-(1,4386)      -7.5839512                      1_GWF-(2,428)
         18          2          6     -0.40507015                     1_GWF-(1,4386)      -6.6036926                      1_GWF-(2,192)
         19          2          7     -0.33980732                     1_GWF-(1,4386)      -5.7875102                      1_GWF-(2,192)
         20          2          8     -0.33302730                     1_GWF-(1,4386)      -4.4900616                      1_GWF-(2,192)
         21          2          9     -0.35852743                     1_GWF-(1,4386)      -3.1983652                       1_GWF-(2,97)
         22          2         10     -0.35648072                     1_GWF-(1,4386)      -2.5035171                      1_GWF-(2,200)
         23          2         11     -0.26752634                     1_GWF-(1,4386)      -1.9567502                      1_GWF-(2,200)
         24          2         12     -0.18688997                     1_GWF-(1,4386)      -1.7008823                       1_GWF-(2,93)
         25          2         13     -0.11649004                     1_GWF-(1,4386)      -1.5294097                       1_GWF-(2,93)
         26          2         14 -8.69479105E-02                     1_GWF-(1,4386)      -1.3782283                       1_GWF-(2,91)
         27          2         15  9.36140745E-02                       1_GWF-(1,93)      -1.2159021                       1_GWF-(2,91)
         28          2         16  9.36238009E-02                        1_GWF-(3,1)       1.0657950                     1_GWF-(2,3819)
         29          2         17  9.52836984E-02                        1_GWF-(3,1)      0.95519222                     1_GWF-(2,3819)
         30          2         18  9.24777285E-02                        1_GWF-(3,1)      0.84391380                     1_GWF-(2,3819)
         31          2         19  7.42904957E-02                        1_GWF-(3,1)      0.75938764                     1_GWF-(2,3819)
         32          2         20 -6.12706232E-02                     1_GWF-(1,3605)      0.68423719                     1_GWF-(2,3819)
         33          2         21 -6.44670733E-02                     1_GWF-(1,3605)      0.61659321                     1_GWF-(2,3819)
         34          2         22 -6.44354941E-02                     1_GWF-(1,3605)      0.54278134                     1_GWF-(2,3819)
         35          2         23 -6.48750363E-02                     1_GWF-(1,3605)      0.47341123                     1_GWF-(2,3819)
         36          2         24 -6.09775827E-02                     1_GWF-(1,3605)      0.42174835                     1_GWF-(2,3208)
         37          2         25 -5.61493381E-02                     1_GWF-(1,3605)      0.38346106                     1_GWF-(2,3208)
         38          2         26 -4.98480440E-02                     1_GWF-(1,3605)      0.34357593                     1_GWF-(2,3208)
         39          2         27 -4.31073611E-02                     1_GWF-(1,3605)      0.30290649                     1_GWF-(2,3208)
         40          2         28 -3.91248954E-02                     1_GWF-(1,3605)      0.26090753                     1_GWF-(2,3208)
         41          2         29 -3.14861230E-02                     1_GWF-(1,3222)      0.22601603                     1_GWF-(2,3214)
         42          2         30 -2.66560648E-02                     1_GWF-(1,3222)      0.19722131                     1_GWF-(2,3214)
         43          2         31 -2.43898228E-02                     1_GWF-(1,3222)      0.16982260                     1_GWF-(2,3214)
         44          2         32 -1.92119384E-02                     1_GWF-(1,3222)      0.14723188                     1_GWF-(2,3214)
         45          2         33 -2.87270738E-02                     1_GWF-(1,3222)      0.13124720                     1_GWF-(2,1460)
         46          2         34 -5.89461314E-02                       1_GWF-(1,93)      0.12753061                     1_GWF-(2,2965)
         47          2         35  6.59808375E-04                     1_GWF-(1,3605)      0.12191384                     1_GWF-(2,2852)
         48          2         36 -1.40091073E-02                     1_GWF-(2,2964)      0.10124089                     1_GWF-(2,1460)
         49          2         37 -8.75154171E-03                     1_GWF-(2,2964)      0.10825153                     1_GWF-(2,1460)
         50          2         38 -8.99954090E-03                     1_GWF-(3,2963)      0.10672433                     1_GWF-(2,1353)
         51          2         39 -4.90987351E-04                     1_GWF-(2,1199)  9.80344045E-02                     1_GWF-(2,1460)
         52          3          1      -1.5621476                     1_GWF-(1,4386)       4.0540804                     1_GWF-(2,4386)
         53          3          2     -0.32813395                     1_GWF-(1,4386)       1.7413089                     1_GWF-(2,4715)
         54          3          3     -0.22068434                     1_GWF-(1,4386)       1.3245336                     1_GWF-(2,4715)
         55          3          4     -0.18404796                     1_GWF-(1,4386)      0.93714225                     1_GWF-(2,4605)
         56          3          5     -0.15245739                     1_GWF-(2,4386)     -0.76826588                     1_GWF-(2,3259)
         57          3          6     -0.12797886                     1_GWF-(2,4386)      0.57883295                     1_GWF-(2,4367)
         58          3          7     -0.10256587                     1_GWF-(2,4386)     -0.49799681                     1_GWF-(2,2961)
         59          3          8 -7.91548218E-02                     1_GWF-(2,4386)     -0.46659451                     1_GWF-(2,2455)
         60          3          9 -6.75070067E-02                     1_GWF-(2,4386)     -0.41910670                     1_GWF-(2,2455)
         61          3         10 -6.94032800E-02                     1_GWF-(2,4386)     -0.34446630                     1_GWF-(2,4709)
         62          3         11 -6.74535716E-02                     1_GWF-(2,4386)     -0.30060947                       1_GWF-(2,96)
         63          3         12 -5.79199781E-02                     1_GWF-(2,4386)     -0.24583935                      1_GWF-(2,320)
         64          3         13 -3.71736938E-02                     1_GWF-(2,4386)     -0.23758809                      1_GWF-(2,320)
         65          3         14 -2.03589682E-02                     1_GWF-(2,4386)     -0.20522827                      1_GWF-(2,197)
         66          3         15 -1.20585108E-02                     1_GWF-(2,4386)     -0.19144296                      1_GWF-(2,197)
         67          3         16  1.11744484E-02                        1_GWF-(3,1)     -0.17733307                      1_GWF-(2,197)
         68          3         17  9.80834074E-03                        1_GWF-(3,1)     -0.16283138                      1_GWF-(2,197)
         69          3         18  9.65919861E-03                        1_GWF-(3,1)     -0.15329766                      1_GWF-(2,197)
         70          3         19  9.86021203E-03                        1_GWF-(3,1)     -0.14039420                      1_GWF-(2,197)
         71          3         20  1.03222109E-02                        1_GWF-(3,1)     -0.12682709                      1_GWF-(2,197)
         72          3         21  1.10096367E-02                       1_GWF-(3,90)     -0.11414154                      1_GWF-(2,197)
         73          3         22  1.30769558E-02                       1_GWF-(3,90)     -0.10089321                      1_GWF-(2,888)
         74          3         23  1.26099954E-02                       1_GWF-(3,90) -8.99456133E-02                      1_GWF-(2,888)
         75          3         24  1.28336527E-02                       1_GWF-(3,90) -7.91887220E-02                      1_GWF-(2,888)
         76          3         25  1.27088556E-02                       1_GWF-(3,90) -6.69490319E-02                      1_GWF-(2,888)
         77          3         26  1.13551969E-02                       1_GWF-(3,90) -5.77706710E-02                      1_GWF-(2,888)
         78          3         27  9.11794097E-03                       1_GWF-(2,90) -4.89093029E-02                     1_GWF-(2,1460)
         79          3         28  7.00862153E-03                       1_GWF-(2,90) -4.40627694E-02                     1_GWF-(2,1460)
         80          3         29  5.90119478E-03                      1_GWF-(2,316) -3.89702446E-02                     1_GWF-(2,1460)
         81          3         30  4.95054560E-03                      1_GWF-(3,667) -3.71867554E-02                     1_GWF-(2,1460)
         82          3         31  6.98351947E-03                      1_GWF-(3,786) -2.41140741E-02                     1_GWF-(2,1460)
         83          3         32 -1.61771062E-02                       1_GWF-(2,90) -6.36974473E-02                      1_GWF-(2,888)
         84          3         33  2.02505794E-02                      1_GWF-(2,786) -1.72620485E-02                     1_GWF-(2,1460)
         85          3         34  1.60140657E-03                      1_GWF-(3,887) -1.58420928E-02                     1_GWF-(2,1460)
         86          3         35  3.03094158E-03                      1_GWF-(3,887) -1.34772816E-02                     1_GWF-(2,1460)
         87          3         36  7.43690885E-04                     1_GWF-(2,1352) -1.42773555E-02                     1_GWF-(2,1353)
         88          4          1     -0.27007094                     1_GWF-(1,4386)      0.77362315                     1_GWF-(2,4386)
         89          4          2 -3.86031479E-02                     1_GWF-(1,4386)     -0.23768636                     1_GWF-(2,4119)
         90          4          3 -2.11123926E-02                     1_GWF-(2,4386)     -0.17562575                     1_GWF-(2,4237)
         91          4          4 -1.40386449E-02                     1_GWF-(2,4386)     -0.12751518                     1_GWF-(2,4125)
         92          4          5 -1.01193141E-02                     1_GWF-(2,4386)     -0.10604974                     1_GWF-(2,3259)
         93          4          6  5.82142626E-03                     1_GWF-(2,4130) -7.74319804E-02                     1_GWF-(2,3586)
         94          4          7  4.33286908E-03                     1_GWF-(2,4355) -8.42317420E-02                     1_GWF-(2,4709)
         95          4          8  3.07435608E-03                     1_GWF-(2,4358) -8.52790109E-02                     1_GWF-(2,4709)
         96          4          9  3.13087941E-03                     1_GWF-(1,4136) -8.35105031E-02                     1_GWF-(2,4709)
         97          4         10  3.69438031E-03                     1_GWF-(2,4249) -7.09637930E-02                     1_GWF-(2,4709)
         98          4         11  3.99527664E-03                     1_GWF-(2,4362) -5.61835197E-02                     1_GWF-(2,4709)
         99          4         12  3.79019234E-03                     1_GWF-(2,4508) -3.72520084E-02                     1_GWF-(2,4709)
        100          4         13  2.74056104E-03                     1_GWF-(2,4508) -2.16965659E-02                     1_GWF-(2,4709)
        101          4         14  1.71007676E-03                     1_GWF-(2,4600) -1.51675453E-02                     1_GWF-(2,3217)
        102          4         15  1.26379059E-03                     1_GWF-(2,4600) -1.25292305E-02                     1_GWF-(2,3217)
        103          4         16  8.75735528E-04                     1_GWF-(1,3222) -1.19131932E-02                     1_GWF-(2,1353)
        104          5          1  6.13561139E-03                     1_GWF-(3,5089) -6.81494536E-02                     1_GWF-(1,4662)
        105          5          2  2.75127950E-03                     1_GWF-(1,5060) -3.20452910E-02                     1_GWF-(2,4119)
        106          5          3  1.69854193E-03                     1_GWF-(3,4963) -2.39504283E-02                     1_GWF-(2,4237)
        107          5          4  1.24460918E-03                     1_GWF-(2,4616) -1.69607720E-02                     1_GWF-(2,4125)
        108          5          5  1.05239534E-03                     1_GWF-(2,4616) -1.30487233E-02                     1_GWF-(2,1353)
        109          5          6  8.18696920E-04                     1_GWF-(2,4130) -1.15094356E-02                     1_GWF-(2,1353)
        110          6          1  7.39349255E-04                     1_GWF-(3,5091) -1.06010637E-02                     1_GWF-(2,1353)
 --------------------------------------------------------------------------------------------------------------------------------------




 Solution SLN_1 summary
 ----------------------------------------------------------------------
 Total formulate time:  .1562500000000000E-01 seconds
 Total solution time:   .3125000000000000E-01 seconds


 MEMORY MANAGER TOTAL STORAGE BY DATA TYPE, IN MEGABYTES
 -------------------------------
                    ALLOCATED   
 DATA TYPE           MEMORY     
 -------------------------------
 Character        5.92900000E-03
 Logical          4.00000000E-05
 Integer          4.6679720     
 Real             9.2140000     
 -------------------------------
 Total            13.887941     
 -------------------------------


 
 Run end date and time (yyyy/mm/dd hh:mm:ss): 2022/12/30 13:27:32
 Elapsed run time:  0.542 Seconds
 Normal termination of simulation.
