                                   MODFLOW 6
                U.S. GEOLOGICAL SURVEY MODULAR HYDROLOGIC MODEL
                          GROUNDWATER FLOW MODEL (GWF)
                   VERSION 6.4.0 release candidate 11/02/2022
                               ***DEVELOP MODE***

   MODFLOW 6 compiled Nov 02 2022 03:56:54 with Intel(R) Fortran Intel(R) 64
   Compiler Classic for applications running on Intel(R) 64, Version 2021.6.0
                             Build 20220226_000000

This software is preliminary or provisional and is subject to 
revision. It is being provided to meet the need for timely best 
science. The software has not received final approval by the U.S. 
Geological Survey (USGS). No warranty, expressed or implied, is made 
by the USGS or the U.S. Government as to the functionality of the 
software and related material nor shall the fact of release 
constitute any such warranty. The software is provided on the 
condition that neither the USGS nor the U.S. Government shall be held 
liable for any damages resulting from the authorized or unauthorized 
use of the software.


As a work of the United States Government, this USGS product is 
in the public domain within the United States. You can copy, 
modify, distribute, and perform the work, even for commercial 
purposes, all without asking permission. Additionally, USGS 
waives copyright and related rights in the work worldwide 
through CC0 1.0 Universal Public Domain Dedication 
(https://creativecommons.org/publicdomain/zero/1.0/).

The following GNU Lesser General Public License (LGPL) libraries
are used in this USGS product:

    SPARSKIT version 2.0
      ilut, luson, and qsplit 
      (https://www-users.cse.umn.edu/~saad/software/SPARSKIT/)

    RCM - Reverse Cuthill McKee Ordering
      (https://people.math.sc.edu/Burkardt/f_src/rcm/rcm.html)

    BLAS - Basic Linear Algebra Subprograms Level 1
      (https://people.math.sc.edu/Burkardt/f_src/blas1_d/blas1_d.html)

    SPARSEKIT - Sparse Matrix Utility Package
      amux, dperm, dvperm, rperm, and cperm
      (https://people.sc.fsu.edu/~jburkardt/f77_src/sparsekit/sparsekit.html)

The following BSD-3 License libraries are used in this USGS product:

    Modern Fortran DAG Library
      Copyright (c) 2018, Jacob Williams
      All rights reserved.
      (https://github.com/jacobwilliams/daglib)

MODFLOW 6 compiler options: /Isrc\libmf6core.a.p /Isrc /I..\src
/Isrc\libmf6_external.a.p /MTd /nologo /warn:general /warn:truncated_source
/stand:f08 /Zi /traceback /O2 /Zi /fpe:0 /heap-arrays:0 /traceback /fpp
/Qdiag-disable:7416 /Qdiag-disable:7025 /Qdiag-disable:5268
/Fdsrc\libmf6core.a.p\Utilities_compilerversion.F90.pdb
/module:src\libmf6core.a.p
/Fosrc/libmf6core.a.p/Utilities_compilerversion.F90.obj /c

System command used to initiate simulation:
mf6

MODFLOW was compiled using uniform precision.

Real Variables
  KIND: 8
  TINY (smallest non-zero value):    2.225074-308
  HUGE (largest value):    1.797693+308
  PRECISION: 15
  BIT SIZE: 64

Integer Variables
  KIND: 4
  HUGE (largest value): 2147483647
  BIT SIZE: 32

Long Integer Variables
  KIND: 8
  HUGE (largest value): 9223372036854775807
  BIT SIZE: 64

Logical Variables
  KIND: 4
  BIT SIZE: 32
 

 OPENED project.disv
 FILE TYPE:DISV6                  UNIT 1005   STATUS:OLD                 
 FORMAT:FORMATTED              ACCESS:SEQUENTIAL          
 ACTION:READ                


 OPENED project.ic
 FILE TYPE:IC6                    UNIT 1006   STATUS:OLD                 
 FORMAT:FORMATTED              ACCESS:SEQUENTIAL          
 ACTION:READ                


 OPENED project.npf
 FILE TYPE:NPF6                   UNIT 1007   STATUS:OLD                 
 FORMAT:FORMATTED              ACCESS:SEQUENTIAL          
 ACTION:READ                


 OPENED project.rcha
 FILE TYPE:RCH6                   UNIT 1008   STATUS:OLD                 
 FORMAT:FORMATTED              ACCESS:SEQUENTIAL          
 ACTION:READ                


 OPENED project.sfr
 FILE TYPE:SFR6                   UNIT 1009   STATUS:OLD                 
 FORMAT:FORMATTED              ACCESS:SEQUENTIAL          
 ACTION:READ                


 OPENED project.wel
 FILE TYPE:WEL6                   UNIT 1010   STATUS:OLD                 
 FORMAT:FORMATTED              ACCESS:SEQUENTIAL          
 ACTION:READ                


 OPENED project.chd
 FILE TYPE:CHD6                   UNIT 1011   STATUS:OLD                 
 FORMAT:FORMATTED              ACCESS:SEQUENTIAL          
 ACTION:READ                


 OPENED project.oc
 FILE TYPE:OC6                    UNIT 1012   STATUS:OLD                 
 FORMAT:FORMATTED              ACCESS:SEQUENTIAL          
 ACTION:READ                

 NAMEFILE OPTIONS:
    FLOWS WILL BE SAVED TO BUDGET FILE SPECIFIED IN OUTPUT CONTROL
    NEWTON-RAPHSON method enabled for the model.
    NEWTON-RAPHSON UNDER-RELAXATION based on the bottom elevation of the model will be applied to the model.

 DISV -- VERTEX GRID DISCRETIZATION PACKAGE, VERSION 1 : 12/23/2015 - INPUT READ FROM UNIT 1005


 Loading input for PROJECT/DISV
 # File generated by Flopy version 3.3.6 on 12/30/2022 at 13:26:49.
   NLAY = 3
   NCPL = 5108
   NVERT = 6196
   TOP = variable 1D double precision array ranging from 15.51198864000000 to 29.88676834000000
   BOTM = variable 2D double precision array ranging from -.2378750000000000E-01 to 25.97569656000000
   IDOMAIN = variable 2D integer array ranging from 0 to 2

 OPENED project.disv_vertices.txt
 FILE TYPE:OPEN/CLOSE   UNIT 1020   STATUS:OLD                 
 FORMAT:FORMATTED              ACCESS:SEQUENTIAL          
 ACTION:READ                

   IV = variable 1D integer array ranging from 1 to 6196
   XV = variable 1D double precision array ranging from .000000000000000 to 5000.000000000000
   YV = variable 1D double precision array ranging from .000000000000000 to 10000.00000000000

 OPENED project.disv_cell2d.txt
 FILE TYPE:OPEN/CLOSE   UNIT 1021   STATUS:OLD                 
 FORMAT:FORMATTED              ACCESS:SEQUENTIAL          
 ACTION:READ                

   ICELL2D = variable 1D integer array ranging from 1 to 5108
   XC = variable 1D double precision array ranging from 125.0000000000000 to 4875.000000000000
   YC = variable 1D double precision array ranging from 7.812500000000000 to 9992.187500000000
   NCVERT = variable 1D integer array ranging from 5 to 9
   ICVERT = variable 1D integer array ranging from 1 to 6196
 Loading input complete...

 Setting Discretization Options
    MODEL LENGTH UNIT [0=UND, 1=FEET, 2=METERS, 3=CENTIMETERS] SET AS 2
 End Setting Discretization Options

 Setting Discretization Dimensions
    NLAY = 3
    NCPL = 5108
    NVERT = 6196
 End Setting Discretization Dimensions

 Setting Discretization Griddata
    TOP set from input file
    BOTM set from input file
    IDOMAIN set from input file
 End Setting Discretization Griddata

 Discretization Vertex data loaded
 Discretization Cell2d data loaded

 NPF -- NODE PROPERTY FLOW PACKAGE, VERSION 1, 3/30/2015 INPUT READ FROM UNIT 1007

 Loading input for PROJECT/NPF
 # File generated by Flopy version 3.3.6 on 12/30/2022 at 13:26:49.
   ISAVSPDIS = 1
   ICELLTYPE = 1
   K = variable 1D double precision array ranging from .3469392000000000 to 13.74451155000000
 Loading input complete...


 THE SPECIFIED IDOMAIN RESULTS IN A REDUCED NUMBER OF CELLS.
 NUMBER OF USER NODES:   15324
 NUMBER OF NODES IN SOLUTION:   15006


 Setting NPF Options
    SPECIFIC DISCHARGE WILL BE CALCULATED AT CELL CENTERS AND WRITTEN TO DATA-SPDIS IN BUDGET FILE WHEN REQUESTED.
 End Setting NPF Options

 THE FOLLOWING REWET SETTINGS WILL BE USED.
      WETFCT =     1.00000    
      IWETIT = 1
      IHDWET = 0
 K33 not provided.  Setting K33 = K.
 K22 not provided.  Setting K22 = K.
 Setting NPF Griddata
    ICELLTYPE set from input file
    K set from input file
 End Setting NPF Griddata


 WEL   -- WEL PACKAGE, VERSION 8, 2/22/2014 INPUT READ FROM UNIT 1010
 # File generated by Flopy version 3.3.6 on 12/30/2022 at 13:26:49.

 PROCESSING WEL OPTIONS
 END OF WEL OPTIONS

 PROCESSING WEL DIMENSIONS
    MAXBOUND =       6
 END OF WEL DIMENSIONS

 RCH   -- RCH PACKAGE, VERSION 8, 2/22/2014 INPUT READ FROM UNIT 1008
 # File generated by Flopy version 3.3.6 on 12/30/2022 at 13:26:49.

 PROCESSING RCH OPTIONS
    RECHARGE INPUT WILL BE READ AS ARRAY(S).
 END OF RCHA OPTIONS

 CHD   -- CHD PACKAGE, VERSION 8, 2/22/2014 INPUT READ FROM UNIT 1011
 # File generated by Flopy version 3.3.6 on 12/30/2022 at 13:26:49.

 PROCESSING CHD OPTIONS
 END OF CHD OPTIONS

 PROCESSING CHD DIMENSIONS
    MAXBOUND =      56
 END OF CHD DIMENSIONS

 SFR   -- SFR PACKAGE, VERSION 8, 2/22/2014 INPUT READ FROM UNIT 1009
 # File generated by Flopy version 3.3.6 on 12/30/2022 at 13:26:49.

 PROCESSING SFR OPTIONS
    SFR BOUNDARIES HAVE NAMES IN LAST COLUMN.
    SFR STAGES WILL BE PRINTED TO LISTING FILE.
    SFR FLOWS WILL BE PRINTED TO LISTING FILE.

 OPENED project.sfr.obs
 FILE TYPE:OBS   UNIT 1027   STATUS:OLD                 
 FORMAT:FORMATTED              ACCESS:SEQUENTIAL          
 ACTION:READ                

    UNIT CONVERSION VALUE (86400.00000000000) SPECIFIED.
 END OF SFR OPTIONS

 PROCESSING SFR DIMENSIONS
    NREACHES = 1000
 END OF SFR DIMENSIONS

 OPENED project.sfr_packagedata.txt
 FILE TYPE:OPEN/CLOSE   UNIT 1028   STATUS:OLD                 
 FORMAT:FORMATTED              ACCESS:SEQUENTIAL          
 ACTION:READ                


 PROCESSING SFR PACKAGEDATA
 END OF SFR PACKAGEDATA

 OPENED project.sfr_connectiondata.txt
 FILE TYPE:OPEN/CLOSE   UNIT 1029   STATUS:OLD                 
 FORMAT:FORMATTED              ACCESS:SEQUENTIAL          
 ACTION:READ                


 PROCESSING SFR CONNECTIONDATA
 END OF SFR CONNECTIONDATA

 IC -- INITIAL CONDITIONS PACKAGE, VERSION 8, 3/28/2015 INPUT READ FROM UNIT 1006
 # File generated by Flopy version 3.3.6 on 12/30/2022 at 13:26:49.
 PROCESSING GRIDDATA

 OPENED project.ic_strt_layer1.txt
 FILE TYPE:OPEN/CLOSE   UNIT 1030   STATUS:OLD                 
 FORMAT:FORMATTED              ACCESS:SEQUENTIAL          
 ACTION:READ                


 OPENED project.ic_strt_layer2.txt
 FILE TYPE:OPEN/CLOSE   UNIT 1031   STATUS:OLD                 
 FORMAT:FORMATTED              ACCESS:SEQUENTIAL          
 ACTION:READ                


 OPENED project.ic_strt_layer3.txt
 FILE TYPE:OPEN/CLOSE   UNIT 1032   STATUS:OLD                 
 FORMAT:FORMATTED              ACCESS:SEQUENTIAL          
 ACTION:READ                

 END PROCESSING GRIDDATA
    BINARY GRID INFORMATION WILL BE WRITTEN TO:
      UNIT NUMBER: 1033
      FILE NAME: c:\Users\rui2h\OneDrive\Documents\GitHub\python-for-hydrology\notebooks\part1_flopy\temp\quadtree\project.disv.grb

 OPENED c:\Users\rui2h\OneDrive\Documents\GitHub\python-for-hydrology\notebooks\part1_flopy\temp\quadtree\project.disv.grb
 FILE TYPE:DATA(BINARY)   UNIT 1033   STATUS:REPLACE             
 FORMAT:UNFORMATTED            ACCESS:STREAM              
 ACTION:READWRITE           

      THE LAST TIME STEP WILL BE PRINTED
      THE LAST TIME STEP WILL BE PRINTED
 # File generated by Flopy version 3.3.6 on 12/30/2022 at 13:26:49.

 PROCESSING OC OPTIONS

    BUDGET INFORMATION WILL BE WRITTEN TO:
      UNIT NUMBER: 1034
      FILE NAME: project.cbc

 OPENED project.cbc
 FILE TYPE:DATA(BINARY)   UNIT 1034   STATUS:REPLACE             
 FORMAT:UNFORMATTED            ACCESS:STREAM              
 ACTION:READWRITE           

    HEAD INFORMATION WILL BE WRITTEN TO:
      UNIT NUMBER: 1035
      FILE NAME: project.hds

 OPENED project.hds
 FILE TYPE:DATA(BINARY)   UNIT 1035   STATUS:REPLACE             
 FORMAT:UNFORMATTED            ACCESS:STREAM              
 ACTION:READWRITE           

 END OF OC OPTIONS

The observation utility is active for "SFR_0"
 # File generated by Flopy version 3.3.6 on 12/30/2022 at 13:26:49.

Processing observation options:

The PRINT_INPUT option has been specified.


 OPENED project.sfr.obs_continuous_sfr_obs.csv.txt
 FILE TYPE:OPEN/CLOSE   UNIT 1036   STATUS:OLD                 
 FORMAT:FORMATTED              ACCESS:SEQUENTIAL          
 ACTION:READ                


 OBSERVATIONS READ FROM FILE "project.sfr.obs"
 ----------------------------------------------------------------------------------------------------------------------------------------------------------------------------------------------------------------------------
 NAME                                     TYPE                                       TIME         LOCATION DATA                              OUTPUT FILENAME                                                                 
 ----------------------------------------------------------------------------------------------------------------------------------------------------------------------------------------------------------------------------
 UPSTREAM                                 CONTINUOUS  SFR                            ALL TIMES    "  UPSTREAM"                               sfr_obs.csv                                                                     
 DOWNSTREAM                               CONTINUOUS  SFR                            ALL TIMES    "  DOWNSTREAM"                             sfr_obs.csv                                                                     
 GAGE1                                    CONTINUOUS  DOWNSTREAM-FLOW                ALL TIMES    "  410"                                    sfr_obs.csv                                                                     
 GAGE2                                    CONTINUOUS  EXT-OUTFLOW                    ALL TIMES    "  1000"                                   sfr_obs.csv                                                                     
 ----------------------------------------------------------------------------------------------------------------------------------------------------------------------------------------------------------------------------



start timestep kper="1" kstp="1" mode="normal"


 BEGIN READING OUTPUT CONTROL FOR STRESS PERIOD 1
      ALL TIME STEPS WILL BE SAVED
      ALL TIME STEPS WILL BE SAVED

 END READING OUTPUT CONTROL FOR STRESS PERIOD 1

 OPENED project.wel_stress_period_data_1.txt
 FILE TYPE:OPEN/CLOSE   UNIT 1038   STATUS:OLD                 
 FORMAT:FORMATTED              ACCESS:SEQUENTIAL          
 ACTION:READ                


 OPENED project.rcha_recharge_1.txt
 FILE TYPE:OPEN/CLOSE   UNIT 1039   STATUS:OLD                 
 FORMAT:FORMATTED              ACCESS:SEQUENTIAL          
 ACTION:READ                


 OPENED project.chd_stress_period_data_1.txt
 FILE TYPE:OPEN/CLOSE   UNIT 1040   STATUS:OLD                 
 FORMAT:FORMATTED              ACCESS:SEQUENTIAL          
 ACTION:READ                


 OPENED project.sfr_perioddata_1.txt
 FILE TYPE:OPEN/CLOSE   UNIT 1041   STATUS:OLD                 
 FORMAT:FORMATTED              ACCESS:SEQUENTIAL          
 ACTION:READ                


 SLN_1 INNER ITERATION SUMMARY
 --------------------------------------------------------------------------------------------------------------------------------------
      TOTAL      OUTER      INNER                                                            MAXIMUM                                   
  ITERATION  ITERATION  ITERATION  MAXIMUM CHANGE      MAXIMUM CHANGE MODEL-(CELLID)        RESIDUAL    MAXIMUM RESIDUAL MODEL-(CELLID)
 --------------------------------------------------------------------------------------------------------------------------------------
          1          1          1      -9.0380161                     1_GWF-(1,5019)       103.48304                     1_GWF-(2,4824)
          2          1          2      -1.0586910                     1_GWF-(3,4825)       28.688308                     1_GWF-(2,4823)
          3          1          3     -0.46955516                     1_GWF-(2,4824)       12.135357                     1_GWF-(2,4715)
          4          1          4     -0.18887222                     1_GWF-(2,4716)       6.1925139                     1_GWF-(2,4715)
          5          1          5     -0.10097287                     1_GWF-(2,4715)       2.6363532                     1_GWF-(2,4715)
          6          1          6 -4.79672851E-02                     1_GWF-(2,4605)       1.2389828                     1_GWF-(2,4367)
          7          1          7 -2.29774409E-02                     1_GWF-(2,4513)      0.62817091                     1_GWF-(2,4253)
          8          1          8 -1.16425084E-02                     1_GWF-(2,4367)      0.31356499                     1_GWF-(2,4253)
          9          1          9 -5.93021152E-03                     1_GWF-(2,4253)     -0.16522467                       1_GWF-(2,97)
         10          1         10 -3.02088775E-03                     1_GWF-(2,4251)  8.43729025E-02                     1_GWF-(2,3817)
         11          1         11 -1.80486267E-03                     1_GWF-(2,4138)  4.43639568E-02                     1_GWF-(2,3817)
         12          1         12 -9.61899515E-04                     1_GWF-(2,4025)  2.08528590E-02                     1_GWF-(2,3817)
         13          2          1      -1.4036637                     1_GWF-(3,4386)       19.765181                     1_GWF-(2,4823)
         14          2          2     -0.97679794                     1_GWF-(1,4386)      -16.587734                      1_GWF-(2,433)
         15          2          3     -0.73529588                     1_GWF-(1,4386)      -13.531662                      1_GWF-(2,431)
         16          2          4     -0.62431957                     1_GWF-(1,4386)      -10.871519                      1_GWF-(2,328)
         17          2          5     -0.52175828                     1_GWF-(1,4386)      -7.5839512                      1_GWF-(2,428)
         18          2          6     -0.40507015                     1_GWF-(1,4386)      -6.6036926                      1_GWF-(2,192)
         19          2          7     -0.33980732                     1_GWF-(1,4386)      -5.7875102                      1_GWF-(2,192)
         20          2          8     -0.33302730                     1_GWF-(1,4386)      -4.4900616                      1_GWF-(2,192)
         21          2          9     -0.35852743                     1_GWF-(1,4386)      -3.1983652                       1_GWF-(2,97)
         22          2         10     -0.35648072                     1_GWF-(1,4386)      -2.5035171                      1_GWF-(2,200)
         23          2         11     -0.26752634                     1_GWF-(1,4386)      -1.9567502                      1_GWF-(2,200)
         24          2         12     -0.18688997                     1_GWF-(1,4386)      -1.7008823                       1_GWF-(2,93)
         25          2         13     -0.11649004                     1_GWF-(1,4386)      -1.5294097                       1_GWF-(2,93)
         26          2         14 -8.69479105E-02                     1_GWF-(1,4386)      -1.3782283                       1_GWF-(2,91)
         27          2         15  9.36140745E-02                       1_GWF-(1,93)      -1.2159021                       1_GWF-(2,91)
         28          2         16  9.36238009E-02                        1_GWF-(3,1)       1.0657950                     1_GWF-(2,3819)
         29          2         17  9.52836984E-02                        1_GWF-(3,1)      0.95519222                     1_GWF-(2,3819)
         30          2         18  9.24777285E-02                        1_GWF-(3,1)      0.84391380                     1_GWF-(2,3819)
         31          2         19  7.42904957E-02                        1_GWF-(3,1)      0.75938764                     1_GWF-(2,3819)
         32          2         20 -6.12706232E-02                     1_GWF-(1,3605)      0.68423719                     1_GWF-(2,3819)
         33          2         21 -6.44670733E-02                     1_GWF-(1,3605)      0.61659321                     1_GWF-(2,3819)
         34          2         22 -6.44354941E-02                     1_GWF-(1,3605)      0.54278134                     1_GWF-(2,3819)
         35          2         23 -6.48750363E-02                     1_GWF-(1,3605)      0.47341123                     1_GWF-(2,3819)
         36          2         24 -6.09775827E-02                     1_GWF-(1,3605)      0.42174835                     1_GWF-(2,3208)
         37          2         25 -5.61493381E-02                     1_GWF-(1,3605)      0.38346106                     1_GWF-(2,3208)
         38          2         26 -4.98480440E-02                     1_GWF-(1,3605)      0.34357593                     1_GWF-(2,3208)
         39          2         27 -4.31073611E-02                     1_GWF-(1,3605)      0.30290649                     1_GWF-(2,3208)
         40          2         28 -3.91248954E-02                     1_GWF-(1,3605)      0.26090753                     1_GWF-(2,3208)
         41          2         29 -3.14861230E-02                     1_GWF-(1,3222)      0.22601603                     1_GWF-(2,3214)
         42          2         30 -2.66560648E-02                     1_GWF-(1,3222)      0.19722131                     1_GWF-(2,3214)
         43          2         31 -2.43898228E-02                     1_GWF-(1,3222)      0.16982260                     1_GWF-(2,3214)
         44          2         32 -1.92119384E-02                     1_GWF-(1,3222)      0.14723188                     1_GWF-(2,3214)
         45          2         33 -2.87270738E-02                     1_GWF-(1,3222)      0.13124720                     1_GWF-(2,1460)
         46          2         34 -5.89461314E-02                       1_GWF-(1,93)      0.12753061                     1_GWF-(2,2965)
         47          2         35  6.59808375E-04                     1_GWF-(1,3605)      0.12191384                     1_GWF-(2,2852)
         48          2         36 -1.40091073E-02                     1_GWF-(2,2964)      0.10124089                     1_GWF-(2,1460)
         49          2         37 -8.75154171E-03                     1_GWF-(2,2964)      0.10825153                     1_GWF-(2,1460)
         50          2         38 -8.99954090E-03                     1_GWF-(3,2963)      0.10672433                     1_GWF-(2,1353)
         51          2         39 -4.90987351E-04                     1_GWF-(2,1199)  9.80344045E-02                     1_GWF-(2,1460)
         52          3          1      -1.5621476                     1_GWF-(1,4386)       4.0540804                     1_GWF-(2,4386)
         53          3          2     -0.32813395                     1_GWF-(1,4386)       1.7413089                     1_GWF-(2,4715)
         54          3          3     -0.22068434                     1_GWF-(1,4386)       1.3245336                     1_GWF-(2,4715)
         55          3          4     -0.18404796                     1_GWF-(1,4386)      0.93714225                     1_GWF-(2,4605)
         56          3          5     -0.15245739                     1_GWF-(2,4386)     -0.76826588                     1_GWF-(2,3259)
         57          3          6     -0.12797886                     1_GWF-(2,4386)      0.57883295                     1_GWF-(2,4367)
         58          3          7     -0.10256587                     1_GWF-(2,4386)     -0.49799681                     1_GWF-(2,2961)
         59          3          8 -7.91548218E-02                     1_GWF-(2,4386)     -0.46659451                     1_GWF-(2,2455)
         60          3          9 -6.75070067E-02                     1_GWF-(2,4386)     -0.41910670                     1_GWF-(2,2455)
         61          3         10 -6.94032800E-02                     1_GWF-(2,4386)     -0.34446630                     1_GWF-(2,4709)
         62          3         11 -6.74535716E-02                     1_GWF-(2,4386)     -0.30060947                       1_GWF-(2,96)
         63          3         12 -5.79199781E-02                     1_GWF-(2,4386)     -0.24583935                      1_GWF-(2,320)
         64          3         13 -3.71736938E-02                     1_GWF-(2,4386)     -0.23758809                      1_GWF-(2,320)
         65          3         14 -2.03589682E-02                     1_GWF-(2,4386)     -0.20522827                      1_GWF-(2,197)
         66          3         15 -1.20585108E-02                     1_GWF-(2,4386)     -0.19144296                      1_GWF-(2,197)
         67          3         16  1.11744484E-02                        1_GWF-(3,1)     -0.17733307                      1_GWF-(2,197)
         68          3         17  9.80834074E-03                        1_GWF-(3,1)     -0.16283138                      1_GWF-(2,197)
         69          3         18  9.65919861E-03                        1_GWF-(3,1)     -0.15329766                      1_GWF-(2,197)
         70          3         19  9.86021203E-03                        1_GWF-(3,1)     -0.14039420                      1_GWF-(2,197)
         71          3         20  1.03222109E-02                        1_GWF-(3,1)     -0.12682709                      1_GWF-(2,197)
         72          3         21  1.10096367E-02                       1_GWF-(3,90)     -0.11414154                      1_GWF-(2,197)
         73          3         22  1.30769558E-02                       1_GWF-(3,90)     -0.10089321                      1_GWF-(2,888)
         74          3         23  1.26099954E-02                       1_GWF-(3,90) -8.99456133E-02                      1_GWF-(2,888)
         75          3         24  1.28336527E-02                       1_GWF-(3,90) -7.91887220E-02                      1_GWF-(2,888)
         76          3         25  1.27088556E-02                       1_GWF-(3,90) -6.69490319E-02                      1_GWF-(2,888)
         77          3         26  1.13551969E-02                       1_GWF-(3,90) -5.77706710E-02                      1_GWF-(2,888)
         78          3         27  9.11794097E-03                       1_GWF-(2,90) -4.89093029E-02                     1_GWF-(2,1460)
         79          3         28  7.00862153E-03                       1_GWF-(2,90) -4.40627694E-02                     1_GWF-(2,1460)
         80          3         29  5.90119478E-03                      1_GWF-(2,316) -3.89702446E-02                     1_GWF-(2,1460)
         81          3         30  4.95054560E-03                      1_GWF-(3,667) -3.71867554E-02                     1_GWF-(2,1460)
         82          3         31  6.98351947E-03                      1_GWF-(3,786) -2.41140741E-02                     1_GWF-(2,1460)
         83          3         32 -1.61771062E-02                       1_GWF-(2,90) -6.36974473E-02                      1_GWF-(2,888)
         84          3         33  2.02505794E-02                      1_GWF-(2,786) -1.72620485E-02                     1_GWF-(2,1460)
         85          3         34  1.60140657E-03                      1_GWF-(3,887) -1.58420928E-02                     1_GWF-(2,1460)
         86          3         35  3.03094158E-03                      1_GWF-(3,887) -1.34772816E-02                     1_GWF-(2,1460)
         87          3         36  7.43690885E-04                     1_GWF-(2,1352) -1.42773555E-02                     1_GWF-(2,1353)
         88          4          1     -0.27007094                     1_GWF-(1,4386)      0.77362315                     1_GWF-(2,4386)
         89          4          2 -3.86031479E-02                     1_GWF-(1,4386)     -0.23768636                     1_GWF-(2,4119)
         90          4          3 -2.11123926E-02                     1_GWF-(2,4386)     -0.17562575                     1_GWF-(2,4237)
         91          4          4 -1.40386449E-02                     1_GWF-(2,4386)     -0.12751518                     1_GWF-(2,4125)
         92          4          5 -1.01193141E-02                     1_GWF-(2,4386)     -0.10604974                     1_GWF-(2,3259)
         93          4          6  5.82142626E-03                     1_GWF-(2,4130) -7.74319804E-02                     1_GWF-(2,3586)
         94          4          7  4.33286908E-03                     1_GWF-(2,4355) -8.42317420E-02                     1_GWF-(2,4709)
         95          4          8  3.07435608E-03                     1_GWF-(2,4358) -8.52790109E-02                     1_GWF-(2,4709)
         96          4          9  3.13087941E-03                     1_GWF-(1,4136) -8.35105031E-02                     1_GWF-(2,4709)
         97          4         10  3.69438031E-03                     1_GWF-(2,4249) -7.09637930E-02                     1_GWF-(2,4709)
         98          4         11  3.99527664E-03                     1_GWF-(2,4362) -5.61835197E-02                     1_GWF-(2,4709)
         99          4         12  3.79019234E-03                     1_GWF-(2,4508) -3.72520084E-02                     1_GWF-(2,4709)
        100          4         13  2.74056104E-03                     1_GWF-(2,4508) -2.16965659E-02                     1_GWF-(2,4709)
        101          4         14  1.71007676E-03                     1_GWF-(2,4600) -1.51675453E-02                     1_GWF-(2,3217)
        102          4         15  1.26379059E-03                     1_GWF-(2,4600) -1.25292305E-02                     1_GWF-(2,3217)
        103          4         16  8.75735528E-04                     1_GWF-(1,3222) -1.19131932E-02                     1_GWF-(2,1353)
        104          5          1  6.13561139E-03                     1_GWF-(3,5089) -6.81494536E-02                     1_GWF-(1,4662)
        105          5          2  2.75127950E-03                     1_GWF-(1,5060) -3.20452910E-02                     1_GWF-(2,4119)
        106          5          3  1.69854193E-03                     1_GWF-(3,4963) -2.39504283E-02                     1_GWF-(2,4237)
        107          5          4  1.24460918E-03                     1_GWF-(2,4616) -1.69607720E-02                     1_GWF-(2,4125)
        108          5          5  1.05239534E-03                     1_GWF-(2,4616) -1.30487233E-02                     1_GWF-(2,1353)
        109          5          6  8.18696920E-04                     1_GWF-(2,4130) -1.15094356E-02                     1_GWF-(2,1353)
        110          6          1  7.39349255E-04                     1_GWF-(3,5091) -1.06010637E-02                     1_GWF-(2,1353)
 --------------------------------------------------------------------------------------------------------------------------------------


 UBDSV1 SAVING     FLOW-JA-FACE ON UNIT   1034 AT TIME STEP      1, STRESS PERIOD      1
 UBDSV06 SAVING       DATA-SPDIS IN MODEL PROJECT          PACKAGE NPF             CONNECTED TO MODEL PROJECT          PACKAGE NPF              ON UNIT   1034 AT TIME STEP      1, STRESS PERIOD      1
 UBDSV06 SAVING              WEL IN MODEL PROJECT          PACKAGE PROJECT         CONNECTED TO MODEL PROJECT          PACKAGE WEL_0            ON UNIT   1034 AT TIME STEP      1, STRESS PERIOD      1
 UBDSV06 SAVING             RCHA IN MODEL PROJECT          PACKAGE PROJECT         CONNECTED TO MODEL PROJECT          PACKAGE RCHA_0           ON UNIT   1034 AT TIME STEP      1, STRESS PERIOD      1
 UBDSV06 SAVING              CHD IN MODEL PROJECT          PACKAGE PROJECT         CONNECTED TO MODEL PROJECT          PACKAGE CHD_0            ON UNIT   1034 AT TIME STEP      1, STRESS PERIOD      1
 UBDSV06 SAVING              SFR IN MODEL PROJECT          PACKAGE PROJECT         CONNECTED TO MODEL PROJECT          PACKAGE SFR_0            ON UNIT   1034 AT TIME STEP      1, STRESS PERIOD      1

 SFR PACKAGE (SFR_0) FLOW RATES   PERIOD      1   STEP        1
 ----------------------------------------------------------------------------------------
   NUMBER   CELLID                    RATE       NAME                                    
 ----------------------------------------------------------------------------------------
     1      (3,19)               -6.7800937      UPSTREAM                                
     2      (3,21)               -7.3545564      UPSTREAM                                
     3      (3,24)               -7.5689861      UPSTREAM                                
     4      (3,26)               -7.8471297      UPSTREAM                                
     5      (3,30)               -7.9244886      UPSTREAM                                
     6      (3,32)               -8.1597058      UPSTREAM                                
     7      (3,35)               -8.2179457      UPSTREAM                                
     8      (3,37)               -8.4393491      UPSTREAM                                
     9      (3,51)               -8.4538238      UPSTREAM                                
     10     (3,53)               -8.6950505      UPSTREAM                                
     11     (3,56)               -9.3055594      UPSTREAM                                
     12     (3,58)               -9.3727061      UPSTREAM                                
     13     (3,59)               -3.2564644      UPSTREAM                                
     14     (3,63)               -6.7498680      UPSTREAM                                
     15     (3,65)               -7.4833756      UPSTREAM                                
     16     (3,68)               -7.8719235      UPSTREAM                                
     17     (3,70)               -8.4116494      UPSTREAM                                
     18     (3,109)              -8.8665375      UPSTREAM                                
     19     (3,111)              -10.679836      UPSTREAM                                
     20     (3,114)              -5.3284961      UPSTREAM                                
     21     (3,124)              -5.9072820      UPSTREAM                                
     22     (3,126)              -7.5833471      UPSTREAM                                
     23     (3,130)              -8.7070132      UPSTREAM                                
     24     (3,132)              -8.5022241      UPSTREAM                                
     25     (3,133)              -3.7804402      UPSTREAM                                
     26     (3,136)              -6.9836567      UPSTREAM                                
     27     (3,138)              -8.2145291      UPSTREAM                                
     28     (3,149)              -10.849863      UPSTREAM                                
     29     (3,151)              -0.68792540     UPSTREAM                                
     30     (3,154)              -7.6078018      UPSTREAM                                
     31     (3,157)              -7.9415588      UPSTREAM                                
     32     (3,159)              -8.8032044      UPSTREAM                                
     33     (3,166)              -7.1897261      UPSTREAM                                
     34     (3,167)              -4.6734531      UPSTREAM                                
     35     (3,169)              -6.8756400      UPSTREAM                                
     36     (3,172)              -8.0619613      UPSTREAM                                
     37     (3,174)              -10.203089      UPSTREAM                                
     38     (3,179)              -2.2898648      UPSTREAM                                
     39     (3,218)              -7.5775628      UPSTREAM                                
     40     (3,220)              -8.0324459      UPSTREAM                                
     41     (3,223)              -9.9954630      UPSTREAM                                
     42     (3,224)              -4.0921149      UPSTREAM                                
     43     (3,226)              -9.8474125      UPSTREAM                                
     44     (3,229)              -2.6093997      UPSTREAM                                
     45     (3,233)              -9.7790111      UPSTREAM                                
     46     (3,234)              -0.38083223     UPSTREAM                                
     47     (3,236)              -8.1632330      UPSTREAM                                
     48     (3,239)              -3.5665101      UPSTREAM                                
     49     (3,257)              -6.2075024      UPSTREAM                                
     50     (3,259)              -5.1715326      UPSTREAM                                
     51     (3,260)              -5.1846322      UPSTREAM                                
     52     (3,265)              -5.7730383      UPSTREAM                                
     53     (3,268)              -4.2145112      UPSTREAM                                
     54     (3,270)              -6.0407768      UPSTREAM                                
     55     (3,271)              -3.4821122      UPSTREAM                                
     56     (3,274)              -6.6698030      UPSTREAM                                
     57     (3,279)              -1.1429855      UPSTREAM                                
     58     (3,281)              -6.1625799      UPSTREAM                                
     59     (3,288)              -3.5795549      UPSTREAM                                
     60     (3,289)              -4.7663657      UPSTREAM                                
     61     (3,291)              -4.9756119      UPSTREAM                                
     62     (3,294)              -3.6666855      UPSTREAM                                
     63     (3,297)              -5.4013610      UPSTREAM                                
     64     (3,299)              -4.0060602      UPSTREAM                                
     65     (3,300)              -3.9313501      UPSTREAM                                
     66     (3,336)              -4.8474728      UPSTREAM                                
     67     (3,338)              -6.1328424      UPSTREAM                                
     68     (3,341)              -1.9472696      UPSTREAM                                
     69     (3,351)              -4.9781675      UPSTREAM                                
     70     (3,353)              -5.2277771      UPSTREAM                                
     71     (3,357)              -5.4265966      UPSTREAM                                
     72     (3,358)              -2.0726224      UPSTREAM                                
     73     (3,360)              -5.1938030      UPSTREAM                                
     74     (3,363)              -5.0987399      UPSTREAM                                
     75     (3,365)              -5.6497625      UPSTREAM                                
     76     (3,376)              -4.8300232      UPSTREAM                                
     77     (3,379)              -3.3408268      UPSTREAM                                
     78     (3,381)              -5.2115893      UPSTREAM                                
     79     (3,384)              -5.0809445      UPSTREAM                                
     80     (3,386)              -5.1860856      UPSTREAM                                
     81     (3,393)              -5.0746599      UPSTREAM                                
     82     (3,395)              -5.1974220      UPSTREAM                                
     83     (3,398)              -5.0689168      UPSTREAM                                
     84     (3,400)              -5.1731733      UPSTREAM                                
     85     (3,442)              -4.9020772      UPSTREAM                                
     86     (3,444)              -4.9943930      UPSTREAM                                
     87     (3,447)              -4.7809045      UPSTREAM                                
     88     (3,449)              -4.8413117      UPSTREAM                                
     89     (3,456)              -4.4737900      UPSTREAM                                
     90     (3,458)              -4.5046235      UPSTREAM                                
     91     (3,463)              -1.3660115      UPSTREAM                                
     92     (3,464)              -4.2449685      UPSTREAM                                
     93     (3,466)              -3.5514052      UPSTREAM                                
     94     (3,484)               4.7632057      UPSTREAM                                
     95     (3,486)              -5.2266814      UPSTREAM                                
     96     (3,488)              -4.3163881      UPSTREAM                                
     97     (3,491)              -3.5902234      UPSTREAM                                
     98     (3,492)              -3.5986677      UPSTREAM                                
     99     (3,493)              -2.4201977      UPSTREAM                                
    100     (3,496)              -3.8471091      UPSTREAM                                
    101     (3,498)              -3.5233360      UPSTREAM                                
    102     (3,501)              -2.8687746      UPSTREAM                                
    103     (3,503)              -0.44503482     UPSTREAM                                
    104     (3,556)               5.7719184      UPSTREAM                                
    105     (3,557)              -1.3670476      UPSTREAM                                
    106     (3,558)               0.37694457     UPSTREAM                                
    107     (3,559)               3.4843061      UPSTREAM                                
    108     (3,567)              -1.5021943      UPSTREAM                                
    109     (3,572)               3.4525692      UPSTREAM                                
    110     (3,574)              -2.6889959      UPSTREAM                                
    111     (3,575)              -1.7088762      UPSTREAM                                
    112     (3,576)               0.22636204     UPSTREAM                                
    113     (3,577)              -1.3605256      UPSTREAM                                
    114     (3,578)               0.26711825     UPSTREAM                                
    115     (3,582)              -1.6360744      UPSTREAM                                
    116     (3,583)              -6.3693669      UPSTREAM                                
    117     (3,584)              -2.8597946      UPSTREAM                                
    118     (3,585)              -6.3501486      UPSTREAM                                
    119     (3,586)              -2.9395523      UPSTREAM                                
    120     (3,589)              -1.7307660      UPSTREAM                                
    121     (3,604)              -8.9035736      UPSTREAM                                
    122     (3,605)              -4.0356515      UPSTREAM                                
    123     (3,606)              -4.7619754      UPSTREAM                                
    124     (3,610)              -2.4484233      UPSTREAM                                
    125     (3,611)              -5.5584070      UPSTREAM                                
    126     (3,613)              -3.0432721      UPSTREAM                                
    127     (3,620)              -2.3535396      UPSTREAM                                
    128     (3,621)              -1.2981402      UPSTREAM                                
    129     (3,623)              -4.9467214      UPSTREAM                                
    130     (3,624)              -3.1648361      UPSTREAM                                
    131     (3,625)              -3.1125446      UPSTREAM                                
    132     (3,627)              -4.6785733      UPSTREAM                                
    133     (3,629)              -1.2285095      UPSTREAM                                
    134     (3,639)              -4.2523805      UPSTREAM                                
    135     (3,640)              -6.8152520      UPSTREAM                                
    136     (3,641)              -7.8981794      UPSTREAM                                
    137     (3,643)              -4.1376903      UPSTREAM                                
    138     (3,693)              -4.8609542      UPSTREAM                                
    139     (3,695)              -7.1203771      UPSTREAM                                
    140     (3,696)              -2.4997511      UPSTREAM                                
    141     (3,697)              -8.6506290      UPSTREAM                                
    142     (3,708)              -5.7627360      UPSTREAM                                
    143     (3,710)              -5.3600010      UPSTREAM                                
    144     (3,713)              -10.039996      UPSTREAM                                
    145     (3,715)              -6.7685927      UPSTREAM                                
    146     (3,716)              -0.37123482     UPSTREAM                                
    147     (3,725)              -5.2992629      UPSTREAM                                
    148     (3,727)              -4.5681011      UPSTREAM                                
    149     (3,730)              -2.8447241      UPSTREAM                                
    150     (3,731)              -5.5547902      UPSTREAM                                
    151     (3,732)              -0.53857711     UPSTREAM                                
    152     (3,737)              -2.3598548      UPSTREAM                                
    153     (3,738)              -11.058212      UPSTREAM                                
    154     (3,740)              -8.6948343      UPSTREAM                                
    155     (3,741)              -0.84504812     UPSTREAM                                
    156     (3,742)              -9.9188151      UPSTREAM                                
    157     (3,743)              -11.171409      UPSTREAM                                
    158     (3,747)              -17.093321      UPSTREAM                                
    159     (3,748)              -12.641428      UPSTREAM                                
    160     (3,749)              -4.4260842      UPSTREAM                                
    161     (3,754)              -15.814602      UPSTREAM                                
    162     (3,756)              -6.6580210      UPSTREAM                                
    163     (3,809)              -8.7533252      UPSTREAM                                
    164     (3,811)              -6.9099056      UPSTREAM                                
    165     (3,814)              -5.2344046      UPSTREAM                                
    166     (3,816)              -4.5257983      UPSTREAM                                
    167     (3,821)              -4.9208936      UPSTREAM                                
    168     (3,823)              -7.0193684      UPSTREAM                                
    169     (3,826)              -5.7971118      UPSTREAM                                
    170     (3,828)              -5.4903615      UPSTREAM                                
    171     (3,829)              -4.5062791      UPSTREAM                                
    172     (3,842)              -5.4164378      UPSTREAM                                
    173     (3,844)              -5.2262710      UPSTREAM                                
    174     (3,847)              -4.8457912      UPSTREAM                                
    175     (3,849)              -4.8276369      UPSTREAM                                
    176     (3,856)              -4.4613237      UPSTREAM                                
    177     (3,858)              -4.4690571      UPSTREAM                                
    178     (3,861)              -4.2113808      UPSTREAM                                
    179     (3,863)              -4.2419984      UPSTREAM                                
    180     (3,908)              -3.9705530      UPSTREAM                                
    181     (3,910)              -4.0253558      UPSTREAM                                
    182     (3,913)              -3.8693603      UPSTREAM                                
    183     (3,915)              -3.9693497      UPSTREAM                                
    184     (3,922)              -3.9032720      UPSTREAM                                
    185     (3,924)              -4.3733869      UPSTREAM                                
    186     (3,927)              -5.3887271      UPSTREAM                                
    187     (3,932)              -0.20630886     UPSTREAM                                
    188     (3,934)              -2.0233767      UPSTREAM                                
    189     (3,945)              -2.9174832      UPSTREAM                                
    190     (3,947)              -3.0784400      UPSTREAM                                
    191     (3,948)              -0.18193954     UPSTREAM                                
    192     (3,951)              -1.2088657      UPSTREAM                                
    193     (3,953)              -2.2537456      UPSTREAM                                
    194     (3,960)              -1.3886861      UPSTREAM                                
    195     (3,963)               1.97790337E-02 UPSTREAM                                
    196     (3,965)              -1.5159357      UPSTREAM                                
    197     (3,968)              -0.20340683     UPSTREAM                                
    198     (3,969)              -0.25402835     UPSTREAM                                
    199     (3,981)               0.44654186     UPSTREAM                                
    200     (3,983)               0.37790060     UPSTREAM                                
    201     (3,984)               0.94683107     UPSTREAM                                
    202     (3,1065)              0.78426353     UPSTREAM                                
    203     (3,1068)              1.4994741      UPSTREAM                                
    204     (3,1070)              1.0868497      UPSTREAM                                
    205     (3,1071)              1.9651591      UPSTREAM                                
    206     (3,1074)              1.2700694      UPSTREAM                                
    207     (3,1079)              2.5093105      UPSTREAM                                
    208     (3,1081)              1.2904079      UPSTREAM                                
    209     (3,1082)              2.8578635      UPSTREAM                                
    210     (3,1089)              1.0533302      UPSTREAM                                
    211     (3,1092)              3.5463612      UPSTREAM                                
    212     (3,1094)              0.28628397     UPSTREAM                                
    213     (3,1095)              3.3273084      UPSTREAM                                
    214     (3,1105)              3.8268098      UPSTREAM                                
    215     (3,1108)              0.10883180     UPSTREAM                                
    216     (3,1109)              3.8127917      UPSTREAM                                
    217     (3,1112)              3.9838865      UPSTREAM                                
    218     (3,1113)              2.6528614      UPSTREAM                                
    219     (3,1115)              2.7854171      UPSTREAM                                
    220     (3,1120)              3.9876399      UPSTREAM                                
    221     (3,1121)              4.7493946      UPSTREAM                                
    222     (3,1132)              1.9408651      UPSTREAM                                
    223     (3,1135)              4.8514108      UPSTREAM                                
    224     (3,1136)              4.5773100      UPSTREAM                                
    225     (3,1138)              3.3462030      UPSTREAM                                
    226     (3,1153)              4.7541072      UPSTREAM                                
    227     (3,1156)              3.4707364      UPSTREAM                                
    228     (3,1157)              4.8746273      UPSTREAM                                
    229     (3,1159)              3.5194462      UPSTREAM                                
    230     (3,1162)              5.0149862      UPSTREAM                                
    231     (3,1169)              4.7367167      UPSTREAM                                
    232     (3,1171)              1.7097475      UPSTREAM                                
    233     (3,1172)              5.2755352      UPSTREAM                                
    234     (3,1175)              4.1198536      UPSTREAM                                
    235     (3,1177)              1.1807329      UPSTREAM                                
    236     (3,1182)              5.0143379      UPSTREAM                                
    237     (3,1263)              3.5791607      UPSTREAM                                
    238     (3,1265)              0.55856500     UPSTREAM                                
    239     (3,1266)              4.7154829      UPSTREAM                                
    240     (3,1269)              3.1896294      UPSTREAM                                
    241     (3,1272)              0.30222557     UPSTREAM                                
    242     (3,1274)              4.1181931      UPSTREAM                                
    243     (3,1278)              2.2697425      UPSTREAM                                
    244     (3,1279)              1.1928714      UPSTREAM                                
    245     (3,1281)              3.1700696      UPSTREAM                                
    246     (3,1284)              1.6358840      UPSTREAM                                
    247     (3,1294)              1.7190780      UPSTREAM                                
    248     (3,1296)              2.3822888      UPSTREAM                                
    249     (3,1307)              1.0644452      UPSTREAM                                
    250     (3,1308)              1.5802499      UPSTREAM                                
    251     (3,1310)              1.8204539      UPSTREAM                                
    252     (3,1313)              0.66025476     UPSTREAM                                
    253     (3,1316)              1.6284092      UPSTREAM                                
    254     (3,1318)              1.1878449      UPSTREAM                                
    255     (3,1325)              0.32144533     UPSTREAM                                
    256     (3,1326)              1.1627219      UPSTREAM                                
    257     (3,1328)              0.74071732     UPSTREAM                                
    258     (3,1331)              0.10432320     UPSTREAM                                
    259     (3,1336)              1.0120811      UPSTREAM                                
    260     (3,1338)              0.48540066     UPSTREAM                                
    261     (3,1380)              8.69306682E-02 UPSTREAM                                
    262     (3,1382)             -0.25531333     UPSTREAM                                
    263     (3,1385)             -0.50259538     UPSTREAM                                
    264     (3,1387)             -0.97142597     UPSTREAM                                
    265     (3,1394)             -0.11235564     UPSTREAM                                
    266     (3,1395)             -0.49210028     UPSTREAM                                
    267     (3,1397)             -0.80996110     UPSTREAM                                
    268     (3,1400)             -0.97195993     UPSTREAM                                
    269     (3,1402)             -1.2161343      UPSTREAM                                
    270     (3,1413)             -1.3355494      UPSTREAM                                
    271     (3,1415)             -1.6996606      UPSTREAM                                
    272     (3,1418)             -2.1324259      UPSTREAM                                
    273     (3,1421)             -0.36312878     UPSTREAM                                
    274     (3,1423)             -1.5943607      UPSTREAM                                
    275     (3,1427)             -1.8474759      UPSTREAM                                
    276     (3,1429)             -2.6274210      UPSTREAM                                
    277     (3,1432)             -5.46925957E-02 UPSTREAM                                
    278     (3,1433)             -2.0463214      UPSTREAM                                
    279     (3,1435)             -2.5027030      UPSTREAM                                
    280     (3,1450)             -0.78105075     UPSTREAM                                
    281     (3,1486)             -2.2035516      UPSTREAM                                
    282     (3,1488)             -2.0917451      UPSTREAM                                
    283     (3,1489)             -1.3349339      UPSTREAM                                
    284     (3,1492)             -2.3633147      UPSTREAM                                
    285     (3,1494)             -1.8983685      UPSTREAM                                
    286     (3,1497)             -1.7563519      UPSTREAM                                
    287     (3,1504)             -2.6126433      UPSTREAM                                
    288     (3,1506)             -1.1900263      UPSTREAM                                
    289     (3,1507)             -2.1687933      UPSTREAM                                
    290     (3,1510)             -2.7793953      UPSTREAM                                
    291     (3,1515)             -0.97556559     UPSTREAM                                
    292     (3,1517)             -3.2578731      UPSTREAM                                
    293     (3,1528)             -5.48654028E-03 UPSTREAM                                
    294     (3,1529)             -3.1744573      UPSTREAM                                
    295     (3,1531)             -1.2278380      UPSTREAM                                
    296     (3,1534)             -2.7532410      UPSTREAM                                
    297     (3,1537)             -1.7392205      UPSTREAM                                
    298     (3,1538)             -2.4001951      UPSTREAM                                
    299     (3,1540)             -2.1502872      UPSTREAM                                
    300     (3,1550)             -2.1295229      UPSTREAM                                
    301     (3,1554)             -2.3649494      UPSTREAM                                
    302     (3,1555)             -1.8171548      UPSTREAM                                
    303     (3,1557)             -2.7985963      UPSTREAM                                
    304     (3,1560)             -1.2495379      UPSTREAM                                
    305     (3,1563)             -3.1421543      UPSTREAM                                
    306     (3,1565)             -0.44001488     UPSTREAM                                
    307     (3,1566)             -3.2111270      UPSTREAM                                
    308     (3,1605)             -1.5499453      UPSTREAM                                
    309     (3,1610)             -2.6918913      UPSTREAM                                
    310     (3,1612)             -2.1129649      UPSTREAM                                
    311     (3,1613)             -2.3528455      UPSTREAM                                
    312     (3,1616)             -2.6551820      UPSTREAM                                
    313     (3,1619)             -1.5477878      UPSTREAM                                
    314     (3,1621)             -3.2679173      UPSTREAM                                
    315     (3,1625)             -0.39685325     UPSTREAM                                
    316     (3,1626)             -3.3670106      UPSTREAM                                
    317     (3,1628)             -1.4537462      UPSTREAM                                
    318     (3,1643)             -3.1039382      UPSTREAM                                
    319     (3,1646)             -1.9723103      UPSTREAM                                
    320     (3,1647)             -2.7919723      UPSTREAM                                
    321     (3,1649)             -2.7070986      UPSTREAM                                
    322     (3,1652)             -1.9632242      UPSTREAM                                
    323     (3,1663)             -3.7055989      UPSTREAM                                
    324     (3,1665)             -0.38458299     UPSTREAM                                
    325     (3,1666)             -4.4277586      UPSTREAM                                
    326     (3,1669)             -3.2165308      UPSTREAM                                
    327     (3,1671)             -3.0997604      UPSTREAM                                
    328     (3,1678)             -2.4190007      UPSTREAM                                
    329     (3,1683)             -0.83689094     UPSTREAM                                
    330     (3,1685)             -3.4240274      UPSTREAM                                
    331     (3,1688)             -1.8541893      UPSTREAM                                
    332     (3,1690)              0.49971559     UPSTREAM                                
    333     (3,1739)              1.5421950      UPSTREAM                                
    334     (3,1740)              0.38201706     UPSTREAM                                
    335     (3,1741)              1.7450333      UPSTREAM                                
    336     (3,1742)             -0.36569146     UPSTREAM                                
    337     (3,1755)              0.37614888     UPSTREAM                                
    338     (3,1756)             -0.81669534     UPSTREAM                                
    339     (3,1757)             -0.13319472     UPSTREAM                                
    340     (3,1758)             -0.37977382     UPSTREAM                                
    341     (3,1759)             -0.85333361     UPSTREAM                                
    342     (3,1760)              0.96197530     UPSTREAM                                
    343     (3,1762)             -0.34544308     UPSTREAM                                
    344     (3,1770)             -1.5175184      UPSTREAM                                
    345     (3,1772)             -1.0362837      UPSTREAM                                
    346     (3,1773)             -1.8960839      UPSTREAM                                
    347     (3,1774)             -2.3825796      UPSTREAM                                
    348     (3,1775)             -3.6569204      UPSTREAM                                
    349     (3,1776)             -0.89189356     UPSTREAM                                
    350     (3,1779)             -3.7292138      UPSTREAM                                
    351     (3,1780)             -4.4517089      UPSTREAM                                
    352     (3,1781)             -2.9780441      UPSTREAM                                
    353     (3,1786)             -4.7597269      UPSTREAM                                
    354     (3,1798)             -1.0437390      UPSTREAM                                
    355     (3,1799)             -1.6206260      UPSTREAM                                
    356     (3,1800)             -4.0214410      UPSTREAM                                
    357     (3,1801)             -7.6175838      UPSTREAM                                
    358     (3,1802)             -1.8049018      UPSTREAM                                
    359     (3,1804)             -9.5155414      UPSTREAM                                
    360     (3,1806)             -7.2699353      UPSTREAM                                
    361     (3,1807)             -2.3779230      UPSTREAM                                
    362     (3,1812)             -4.2361997      UPSTREAM                                
    363     (3,1813)             -6.9743122      UPSTREAM                                
    364     (3,1814)             -4.1973506      UPSTREAM                                
    365     (3,1815)             -6.1113002      UPSTREAM                                
    366     (3,1819)             -2.4733846      UPSTREAM                                
    367     (3,1872)             -3.9517455      UPSTREAM                                
    368     (3,1874)             -4.5731533      UPSTREAM                                
    369     (3,1877)             -3.9287380      UPSTREAM                                
    370     (3,1880)             -6.2862338      UPSTREAM                                
    371     (3,1885)             -1.2514119      UPSTREAM                                
    372     (3,1887)             -3.4580400      UPSTREAM                                
    373     (3,1894)             -3.1172429      UPSTREAM                                
    374     (3,1896)             -3.1342335      UPSTREAM                                
    375     (3,1899)             -3.0324900      UPSTREAM                                
    376     (3,1901)             -3.5470250      UPSTREAM                                
    377     (3,1912)             -0.17636258     UPSTREAM                                
    378     (3,1913)             -3.1156920      UPSTREAM                                
    379     (3,1915)             -2.0040616      UPSTREAM                                
    380     (3,1918)             -2.3994365      UPSTREAM                                
    381     (3,1921)             -2.4477948      UPSTREAM                                
    382     (3,1922)             -1.3303081      UPSTREAM                                
    383     (3,1924)             -2.9646221      UPSTREAM                                
    384     (3,1928)             -1.0680870      UPSTREAM                                
    385     (3,1938)             -2.8591855      UPSTREAM                                
    386     (3,1940)             -1.9432841      UPSTREAM                                
    387     (3,1941)             -2.5509112      UPSTREAM                                
    388     (3,1944)             -3.1771562      UPSTREAM                                
    389     (3,1946)             -0.11570787     UPSTREAM                                
    390     (3,1949)             -4.0819735      UPSTREAM                                
    391     (3,2006)             -3.0221036      UPSTREAM                                
    392     (3,2008)             -2.8405758      UPSTREAM                                
    393     (3,2011)             -2.5810361      UPSTREAM                                
    394     (3,2012)             -0.50648056     UPSTREAM                                
    395     (3,2014)             -4.1616580      UPSTREAM                                
    396     (3,2021)             -3.4968498      UPSTREAM                                
    397     (3,2022)             -0.69997834     UPSTREAM                                
    398     (3,2023)             -3.9661770      UPSTREAM                                
    399     (3,2025)             -2.3979738      UPSTREAM                                
    400     (3,2027)             -2.7153941      UPSTREAM                                
    401     (3,2043)              1.9356745      UPSTREAM                                
    402     (3,2046)              2.0378346      UPSTREAM                                
    403     (3,2047)              7.9478042      UPSTREAM                                
    404     (3,2048)              2.7194652      UPSTREAM                                
    405     (3,2050)             -2.3656535      UPSTREAM                                
    406     (3,2052)             -2.8139884      UPSTREAM                                
    407     (3,2053)             -2.7140095      UPSTREAM                                
    408     (3,2057)             -1.0516347      UPSTREAM                                
    409     (3,2058)             -3.1716327      UPSTREAM                                
    410     (3,2059)             -2.4364534      UPSTREAM                                
    411     (3,2066)             -3.5445235      DOWNSTREAM                              
    412     (3,2068)             -0.36916937     DOWNSTREAM                              
    413     (3,2123)              0.61909387     DOWNSTREAM                              
    414     (3,2124)             -1.2392981      DOWNSTREAM                              
    415     (3,2125)              2.5315673      DOWNSTREAM                              
    416     (3,2127)             -2.0830939      DOWNSTREAM                              
    417     (3,2128)             -1.8340009      DOWNSTREAM                              
    418     (3,2129)              0.77955973     DOWNSTREAM                              
    419     (3,2130)              0.20440971     DOWNSTREAM                              
    420     (3,2136)             -1.7759506      DOWNSTREAM                              
    421     (3,2137)             -1.0291409      DOWNSTREAM                              
    422     (3,2138)              1.5564163      DOWNSTREAM                              
    423     (3,2140)             -1.65448111E-02 DOWNSTREAM                              
    424     (3,2142)              8.8627331      DOWNSTREAM                              
    425     (3,2143)              1.8470184      DOWNSTREAM                              
    426     (3,2147)             -0.99793751     DOWNSTREAM                              
    427     (3,2163)             -3.3565303      DOWNSTREAM                              
    428     (3,2164)             -1.3964716      DOWNSTREAM                              
    429     (3,2169)             -2.3891256      DOWNSTREAM                              
    430     (3,2173)             -2.7228965      DOWNSTREAM                              
    431     (3,2174)             -3.8103884      DOWNSTREAM                              
    432     (3,2175)             -1.1815645      DOWNSTREAM                              
    433     (3,2176)             -0.70769606     DOWNSTREAM                              
    434     (3,2178)             -2.0486472      DOWNSTREAM                              
    435     (3,2179)             -4.8015525      DOWNSTREAM                              
    436     (3,2180)             -3.4950855      DOWNSTREAM                              
    437     (3,2182)             -1.3110009      DOWNSTREAM                              
    438     (3,2192)             -4.0794405      DOWNSTREAM                              
    439     (3,2193)             -3.3098930      DOWNSTREAM                              
    440     (3,2196)             -2.8291775      DOWNSTREAM                              
    441     (3,2197)             -2.7459200      DOWNSTREAM                              
    442     (3,2202)             -2.4514762      DOWNSTREAM                              
    443     (3,2203)             -2.4417775      DOWNSTREAM                              
    444     (3,2206)             -2.2441260      DOWNSTREAM                              
    445     (3,2207)             -2.1502421      DOWNSTREAM                              
    446     (3,2216)             -11.633757      DOWNSTREAM                              
    447     (3,2217)             -0.11804268     DOWNSTREAM                              
    448     (3,2234)             -2.5995097      DOWNSTREAM                              
    449     (3,2235)             -2.5261023      DOWNSTREAM                              
    450     (3,2238)             -2.4148850      DOWNSTREAM                              
    451     (3,2239)             -2.4806746      DOWNSTREAM                              
    452     (3,2244)             -2.4081692      DOWNSTREAM                              
    453     (3,2245)             -2.4815877      DOWNSTREAM                              
    454     (3,2248)             -2.4314479      DOWNSTREAM                              
    455     (3,2249)             -2.4254575      DOWNSTREAM                              
    456     (3,2261)             -2.5627965      DOWNSTREAM                              
    457     (3,2262)             -2.7972171      DOWNSTREAM                              
    458     (3,2263)             -1.5046975      DOWNSTREAM                              
    459     (3,2264)             -3.3203215      DOWNSTREAM                              
    460     (3,2265)             -3.3482931      DOWNSTREAM                              
    461     (3,2270)             -3.3182397      DOWNSTREAM                              
    462     (3,2271)             -3.5267291      DOWNSTREAM                              
    463     (3,2274)             -3.6551438      DOWNSTREAM                              
    464     (3,2275)             -3.9241860      DOWNSTREAM                              
    465     (3,2296)             -4.1380241      DOWNSTREAM                              
    466     (3,2297)             -4.4811776      DOWNSTREAM                              
    467     (3,2300)             -4.8577647      DOWNSTREAM                              
    468     (3,2301)             -5.2536778      DOWNSTREAM                              
    469     (3,2307)             -2.6676281      DOWNSTREAM                              
    470     (3,2308)             -16.168146      DOWNSTREAM                              
    471     (3,2310)             -11.812874      DOWNSTREAM                              
    472     (3,2312)             -7.4996911      DOWNSTREAM                              
    473     (3,2313)             -10.260800      DOWNSTREAM                              
    474     (3,2373)             -5.3208820      DOWNSTREAM                              
    475     (3,2377)             -2.5877043      DOWNSTREAM                              
    476     (3,2378)             -4.7424934      DOWNSTREAM                              
    477     (3,2379)             -2.2780382      DOWNSTREAM                              
    478     (3,2380)             -3.0543969      DOWNSTREAM                              
    479     (3,2386)             -6.4835281      DOWNSTREAM                              
    480     (3,2388)             -3.6562486      DOWNSTREAM                              
    481     (3,2390)             -5.0732855      DOWNSTREAM                              
    482     (3,2391)             -7.0355131      DOWNSTREAM                              
    483     (3,2392)             -0.55569588     DOWNSTREAM                              
    484     (3,2394)             -1.8712578      DOWNSTREAM                              
    485     (3,2399)             -13.366453      DOWNSTREAM                              
    486     (3,2400)             -6.0745766      DOWNSTREAM                              
    487     (3,2401)             -5.2751380      DOWNSTREAM                              
    488     (3,2411)             -4.3465685      DOWNSTREAM                              
    489     (3,2413)             -3.3999728      DOWNSTREAM                              
    490     (3,2416)             -2.0912882      DOWNSTREAM                              
    491     (3,2417)             -5.0688918      DOWNSTREAM                              
    492     (3,2418)             -0.59764459     DOWNSTREAM                              
    493     (3,2424)             -4.1256441      DOWNSTREAM                              
    494     (3,2426)             -3.6340313      DOWNSTREAM                              
    495     (3,2429)             -3.0800462      DOWNSTREAM                              
    496     (3,2431)             -2.9316120      DOWNSTREAM                              
    497     (3,2488)             -2.3921044      DOWNSTREAM                              
    498     (3,2490)             -2.1550136      DOWNSTREAM                              
    499     (3,2495)             -4.5651467      DOWNSTREAM                              
    500     (3,2496)             -1.5798325      DOWNSTREAM                              
    501     (3,2498)              0.21096235     DOWNSTREAM                              
    502     (3,2505)             -4.3326176      DOWNSTREAM                              
    503     (3,2507)             -3.9557946      DOWNSTREAM                              
    504     (3,2510)             -3.8224206      DOWNSTREAM                              
    505     (3,2512)             -4.0049792      DOWNSTREAM                              
    506     (3,2520)             -4.3251119      DOWNSTREAM                              
    507     (3,2522)             -5.1560596      DOWNSTREAM                              
    508     (3,2525)             -6.4430270      DOWNSTREAM                              
    509     (3,2528)             -0.10322898     DOWNSTREAM                              
    510     (3,2530)             -2.3702030      DOWNSTREAM                              
    511     (3,2537)             -3.7437943      DOWNSTREAM                              
    512     (3,2539)             -4.9481412      DOWNSTREAM                              
    513     (3,2542)             -5.1499775      DOWNSTREAM                              
    514     (3,2543)             -0.40781443     DOWNSTREAM                              
    515     (3,2545)             -2.2686690      DOWNSTREAM                              
    516     (3,2626)             -3.8992393      DOWNSTREAM                              
    517     (3,2628)             -5.6715888      DOWNSTREAM                              
    518     (3,2631)             -3.1547902      DOWNSTREAM                              
    519     (3,2636)             -1.0611647      DOWNSTREAM                              
    520     (3,2638)             -3.2062205      DOWNSTREAM                              
    521     (3,2645)             -4.6345871      DOWNSTREAM                              
    522     (3,2647)             -6.5499139      DOWNSTREAM                              
    523     (3,2648)             -0.17737872     DOWNSTREAM                              
    524     (3,2651)             -2.7526761      DOWNSTREAM                              
    525     (3,2653)             -4.0152879      DOWNSTREAM                              
    526     (3,2664)             -7.0377125      DOWNSTREAM                              
    527     (3,2666)             -2.4045318      DOWNSTREAM                              
    528     (3,2669)             -3.8969554      DOWNSTREAM                              
    529     (3,2672)             -5.3279678      DOWNSTREAM                              
    530     (3,2673)             -1.7551384      DOWNSTREAM                              
    531     (3,2675)             -5.5854128      DOWNSTREAM                              
    532     (3,2685)             -0.89429759     DOWNSTREAM                              
[...]
 DOWNSTREAM                                  900     (3,4575)              16.621       1.9045       9.4577       16.628       373.97      -4.94092E-03
 DOWNSTREAM                                  901     (3,4578)              16.618       1.9038       9.4641       16.626       373.88      -5.32140E-03
 DOWNSTREAM                                  902     (3,4580)              16.615       1.9030       9.4704       16.623       373.79      -5.71061E-03
 DOWNSTREAM                                  903     (3,4634)              16.612       1.9022       9.4767       16.620       373.71      -5.93403E-03
 DOWNSTREAM                                  904     (3,4636)              16.608       1.9015       9.4831       16.617       373.62      -6.31442E-03
 DOWNSTREAM                                  905     (3,4641)              16.605       1.9008       9.4885       16.612       267.28      -4.53149E-03
 DOWNSTREAM                                  906     (3,4642)              16.603       1.9002       9.4939       16.613       374.52      -7.72250E-03
 DOWNSTREAM                                  907     (3,4644)              16.600       1.8997       9.4983       16.623       142.36      -1.61117E-02
 DOWNSTREAM                                  908     (3,4652)              16.599       1.8994       9.5008       16.604       150.16      -3.29871E-03
 DOWNSTREAM                                  909     (3,4654)              16.597       1.8988       9.5055       16.605       409.43      -5.81982E-03
 DOWNSTREAM                                  910     (3,4655)              16.594       1.8982       9.5108       16.602       208.58      -6.04357E-03
 DOWNSTREAM                                  911     (3,4656)              16.592       1.8978       9.5142       16.607       200.74      -1.09539E-02
 DOWNSTREAM                                  912     (3,4658)              16.589       1.8972       9.5194       16.597       409.22      -5.19474E-03
 DOWNSTREAM                                  913     (3,4660)              16.586       1.8965       9.5251       16.600       259.11      -9.28771E-03
 DOWNSTREAM                                  914     (3,4672)              16.584       1.8958       9.5307       16.591       409.04      -5.23234E-03
 DOWNSTREAM                                  915     (3,4673)              16.581       1.8953       9.5350       16.594       91.539      -9.11357E-03
 DOWNSTREAM                                  916     (3,4674)              16.580       1.8949       9.5385       16.590       317.40      -7.09968E-03
 DOWNSTREAM                                  917     (3,4678)              16.578       1.8945       9.5414       16.594       33.106      -1.11553E-02
 DOWNSTREAM                                  918     (3,4679)              16.576       1.8941       9.5452       16.583       408.82      -4.92646E-03
 DOWNSTREAM                                  919     (3,4681)              16.573       1.8933       9.5519       16.582       375.63      -6.52170E-03
 DOWNSTREAM                                  920     (3,4688)              16.569       1.8925       9.5585       16.576       408.62      -5.17018E-03
 DOWNSTREAM                                  921     (3,4690)              16.566       1.8917       9.5655       16.573       408.51      -5.30519E-03
 DOWNSTREAM                                  922     (3,4692)              16.562       1.8909       9.5722       16.568       383.14      -4.56156E-03
 DOWNSTREAM                                  923     (3,4693)              16.560       1.8905       9.5757       16.589       25.273      -2.05414E-02
 DOWNSTREAM                                  924     (3,4694)              16.558       1.8901       9.5793       16.564       408.31      -3.92995E-03
 DOWNSTREAM                                  925     (3,4733)              16.555       1.8893       9.5856       16.561       324.63      -4.11757E-03
 DOWNSTREAM                                  926     (3,4735)              16.552       1.8886       9.5918       16.557       408.12      -3.85013E-03
 DOWNSTREAM                                  927     (3,4737)              16.549       1.8879       9.5975       16.557       266.20      -5.51113E-03
 DOWNSTREAM                                  928     (3,4738)              16.547       1.8875       9.6010       16.561       141.82      -9.55578E-03
 DOWNSTREAM                                  929     (3,4739)              16.545       1.8870       9.6056       16.551       396.72      -4.27917E-03
 DOWNSTREAM                                  930     (3,4746)              16.543       1.8865       9.6092       16.570       26.649      -1.91904E-02
 DOWNSTREAM                                  931     (3,4748)              16.541       1.8861       9.6127       16.548       389.54      -4.75201E-03
 DOWNSTREAM                                  932     (3,4749)              16.538       1.8854       9.6191       16.546       362.80      -5.97613E-03
 DOWNSTREAM                                  933     (3,4754)              16.534       1.8846       9.6255       16.541       389.35      -4.66564E-03
 DOWNSTREAM                                  934     (3,4755)              16.533       1.8842       9.6291       16.562       26.630      -2.03760E-02
 DOWNSTREAM                                  935     (3,4756)              16.531       1.8838       9.6324       16.538       362.63      -5.23934E-03
 DOWNSTREAM                                  936     (3,4766)              16.528       1.8831       9.6388       16.535       389.17      -4.95437E-03
 DOWNSTREAM                                  937     (3,4768)              16.524       1.8823       9.6454       16.530       388.25      -4.41661E-03
 DOWNSTREAM                                  938     (3,4771)              16.521       1.8816       9.6519       16.527       370.86      -4.08198E-03
 DOWNSTREAM                                  939     (3,4773)              16.518       1.8808       9.6582       16.523       370.78      -3.80354E-03
 DOWNSTREAM                                  940     (3,4780)              16.515       1.8802       9.6639       16.521       292.21      -4.72527E-03
 DOWNSTREAM                                  941     (3,4783)              16.512       1.8795       9.6695       16.517       370.62      -3.57314E-03
 DOWNSTREAM                                  942     (3,4785)              16.508       1.8788       9.6758       16.513       370.54      -3.41975E-03
 DOWNSTREAM                                  943     (3,4786)              16.505       1.8780       9.6822       16.512       370.46      -4.54621E-03
 DOWNSTREAM                                  944     (3,4788)              16.503       1.8776       9.6860       16.521       78.424      -1.22372E-02
 DOWNSTREAM                                  945     (3,4793)              16.502       1.8774       9.6874       16.551       83.271      -3.36338E-02
 DOWNSTREAM                                  946     (3,4839)              16.500       1.8770       9.6913       16.506       370.33      -3.73453E-03
 DOWNSTREAM                                  947     (3,4841)              16.497       1.8763       9.6976       16.502       370.25      -3.62371E-03
 DOWNSTREAM                                  948     (3,4844)              16.494       1.8755       9.7039       16.499       370.17      -3.46560E-03
 DOWNSTREAM                                  949     (3,4846)              16.491       1.8748       9.7102       16.496       370.08      -3.44926E-03
 DOWNSTREAM                                  950     (3,4853)              16.487       1.8741       9.7165       16.492       369.81      -3.24311E-03
 DOWNSTREAM                                  951     (3,4855)              16.484       1.8733       9.7228       16.489       368.08      -3.23713E-03
 DOWNSTREAM                                  952     (3,4858)              16.481       1.8726       9.7291       16.485       368.00      -3.04685E-03
 DOWNSTREAM                                  953     (3,4860)              16.478       1.8719       9.7354       16.482       367.92      -3.02283E-03
 DOWNSTREAM                                  954     (3,4871)              16.474       1.8712       9.7417       16.479       367.83      -2.78108E-03
 DOWNSTREAM                                  955     (3,4873)              16.471       1.8704       9.7480       16.475       367.75      -2.76062E-03
 DOWNSTREAM                                  956     (3,4876)              16.468       1.8697       9.7543       16.472       367.67      -2.56166E-03
 DOWNSTREAM                                  957     (3,4878)              16.465       1.8690       9.7606       16.468       367.59      -2.55268E-03
 DOWNSTREAM                                  958     (3,4885)              16.462       1.8683       9.7669       16.465       367.51      -2.34767E-03
 DOWNSTREAM                                  959     (3,4887)              16.458       1.8676       9.7732       16.462       367.43      -2.37387E-03
 DOWNSTREAM                                  960     (3,4890)              16.455       1.8668       9.7795       16.458       367.34      -2.19053E-03
 DOWNSTREAM                                  961     (3,4892)              16.452       1.8661       9.7857       16.455       367.26      -2.19735E-03
 DOWNSTREAM                                  962     (3,4934)              16.449       1.8654       9.7920       16.451       367.18      -1.91721E-03
 DOWNSTREAM                                  963     (3,4936)              16.445       1.8647       9.7983       16.448       367.10      -1.90784E-03
 DOWNSTREAM                                  964     (3,4939)              16.442       1.8640       9.8046       16.445       367.02      -1.64747E-03
 DOWNSTREAM                                  965     (3,4941)              16.439       1.8633       9.8109       16.441       366.94      -1.61763E-03
 DOWNSTREAM                                  966     (3,4948)              16.436       1.8625       9.8172       16.437       366.86      -1.24098E-03
 DOWNSTREAM                                  967     (3,4950)              16.432       1.8618       9.8235       16.434       366.78      -1.15682E-03
 DOWNSTREAM                                  968     (3,4953)              16.429       1.8611       9.8298       16.430       371.97      -6.75833E-04
 DOWNSTREAM                                  969     (3,4954)              16.427       1.8605       9.8348       16.430       206.14      -2.27806E-03
 DOWNSTREAM                                  970     (3,4955)              16.425       1.8602       9.8380       16.426       169.42      -7.93538E-04
 DOWNSTREAM                                  971     (3,4971)              16.423       1.8596       9.8427       16.424       375.48      -7.46151E-04
 DOWNSTREAM                                  972     (3,4973)              16.419       1.8589       9.8491       16.420       375.39      -5.80435E-04
 DOWNSTREAM                                  973     (3,4978)              16.418       1.8585       9.8525       16.418       18.340      -6.56233E-04
 DOWNSTREAM                                  974     (3,4979)              16.416       1.8581       9.8559       16.416       375.31      -1.44351E-04
 DOWNSTREAM                                  975     (3,4981)              16.413       1.8574       9.8622       16.412       356.89       5.53818E-04
 DOWNSTREAM                                  976     (3,4988)              16.409       1.8567       9.8685       16.409       375.14       6.06506E-05
 DOWNSTREAM                                  977     (3,4990)              16.406       1.8560       9.8749       16.406       375.06       3.50328E-04
 DOWNSTREAM                                  978     (3,4993)              16.403       1.8553       9.8813       16.401       374.98       9.00223E-04
 DOWNSTREAM                                  979     (3,4995)              16.399       1.8545       9.8878       16.397       374.90       1.41795E-03
 DOWNSTREAM                                  980     (3,5034)              16.397       1.8541       9.8916       16.388       64.597       6.31777E-03
 DOWNSTREAM                                  981     (3,5037)              16.395       1.8536       9.8959       16.393       437.33       1.87547E-03
 DOWNSTREAM                                  982     (3,5038)              16.393       1.8530       9.9011       16.382       169.77       7.26418E-03
 DOWNSTREAM                                  983     (3,5039)              16.391       1.8526       9.9048       16.388       262.84       2.02234E-03
 DOWNSTREAM                                  984     (3,5043)              16.388       1.8520       9.9108       16.384       426.45       2.54263E-03
 DOWNSTREAM                                  985     (3,5045)              16.385       1.8514       9.9160       16.373       187.31       7.96903E-03
 DOWNSTREAM                                  986     (3,5048)              16.383       1.8509       9.9202       16.383       294.85      -2.46816E-05
 DOWNSTREAM                                  987     (3,5049)              16.381       1.8505       9.9238       16.378       125.83       2.01370E-03
 DOWNSTREAM                                  988     (3,5050)              16.379       1.8500       9.9281       16.378       372.34       5.03388E-04
 DOWNSTREAM                                  989     (3,5058)              16.376       1.8494       9.9333       16.371       238.92       3.49621E-03
 DOWNSTREAM                                  990     (3,5061)              16.373       1.8488       9.9391       16.368       426.04       3.65601E-03
 DOWNSTREAM                                  991     (3,5063)              16.371       1.8483       9.9431       16.342       45.145       1.97967E-02
 DOWNSTREAM                                  992     (3,5064)              16.369       1.8480       9.9464       16.362       335.77       5.07682E-03
 DOWNSTREAM                                  993     (3,5078)              16.366       1.8473       9.9525       16.357       371.17       6.42302E-03
 DOWNSTREAM                                  994     (3,5080)              16.363       1.8466       9.9589       16.352       371.09       7.39343E-03
 DOWNSTREAM                                  995     (3,5083)              16.360       1.8458       9.9653       16.345       371.01       9.88051E-03
 DOWNSTREAM                                  996     (3,5085)              16.356       1.8451       9.9716       16.339       367.28       1.15668E-02
 DOWNSTREAM                                  997     (3,5089)              16.353       1.8444       9.9780       16.327       365.18       1.75180E-02
 DOWNSTREAM                                  998     (3,5091)              16.350       1.8437       9.9843       16.316       365.11       2.25371E-02
 DOWNSTREAM                                  999     (3,5094)              16.347       1.8430       9.9906       16.271       365.03       5.08419E-02
 DOWNSTREAM                                  1000    (3,5096)              16.344       1.8423       9.9969       15.500       0.0000       0.56258    
 ------------------------------------------------------------------------------------------------------------------------------------------------------



 HEAD WILL BE SAVED ON UNIT 1035 AT END OF TIME STEP    1, STRESS PERIOD    1


  SFR_0 BUDGET FOR ENTIRE MODEL AT END OF TIME STEP    1, STRESS PERIOD   1
  ------------------------------------------------------------------------------

     CUMULATIVE SFR_0      L**3       RATES FOR THIS TIME STEP      L**3/T
     ------------------                 ------------------------

           IN:                                      IN:
           ---                                      ---
                 GWF =        3321.8030                   GWF =        3321.8030
            RAINFALL =           0.0000              RAINFALL =           0.0000
         EVAPORATION =           0.0000           EVAPORATION =           0.0000
              RUNOFF =           0.0000                RUNOFF =           0.0000
          EXT-INFLOW =      864000.0000            EXT-INFLOW =      864000.0000
         EXT-OUTFLOW =           0.0000           EXT-OUTFLOW =           0.0000
             STORAGE =           0.0000               STORAGE =           0.0000

            TOTAL IN =      867321.8030              TOTAL IN =      867321.8030

          OUT:                                     OUT:
          ----                                     ----
                 GWF =         302.7692                   GWF =         302.7692
            RAINFALL =           0.0000              RAINFALL =           0.0000
         EVAPORATION =           0.0000           EVAPORATION =           0.0000
              RUNOFF =           0.0000                RUNOFF =           0.0000
          EXT-INFLOW =           0.0000            EXT-INFLOW =           0.0000
         EXT-OUTFLOW =      867019.0338           EXT-OUTFLOW =      867019.0338
             STORAGE =           0.0000               STORAGE =           0.0000

           TOTAL OUT =      867321.8030             TOTAL OUT =      867321.8030

            IN - OUT =       2.5611E-09              IN - OUT =       2.5611E-09

 PERCENT DISCREPANCY =           0.00     PERCENT DISCREPANCY =           0.00



  VOLUME BUDGET FOR ENTIRE MODEL AT END OF TIME STEP    1, STRESS PERIOD   1
  ---------------------------------------------------------------------------------------------------

     CUMULATIVE VOLUME      L**3       RATES FOR THIS TIME STEP      L**3/T          PACKAGE NAME    
     ------------------                 ------------------------                     ----------------

           IN:                                      IN:
           ---                                      ---
                 WEL =           0.0000                   WEL =           0.0000     WEL_0                            
                RCHA =        5942.7675                  RCHA =        5942.7675     RCHA_0                           
                 CHD =           0.0000                   CHD =           0.0000     CHD_0                            
                 SFR =         296.1528                   SFR =         296.1528     SFR_0                            

            TOTAL IN =        6238.9203              TOTAL IN =        6238.9203

          OUT:                                     OUT:
          ----                                     ----
                 WEL =        1905.1200                   WEL =        1905.1200     WEL_0                            
                RCHA =           0.0000                  RCHA =           0.0000     RCHA_0                           
                 CHD =         941.3526                   CHD =         941.3526     CHD_0                            
                 SFR =        3373.3263                   SFR =        3373.3263     SFR_0                            

           TOTAL OUT =        6219.7990             TOTAL OUT =        6219.7990

            IN - OUT =          19.1213              IN - OUT =          19.1213

 PERCENT DISCREPANCY =           0.31     PERCENT DISCREPANCY =           0.31




         TIME SUMMARY AT END OF TIME STEP    1 IN STRESS PERIOD    1
                    SECONDS     MINUTES      HOURS       DAYS        YEARS
                    -----------------------------------------------------------
   TIME STEP LENGTH  86400.      1440.0      24.000      1.0000     2.73785E-03
 STRESS PERIOD TIME  86400.      1440.0      24.000      1.0000     2.73785E-03
         TOTAL TIME  86400.      1440.0      24.000      1.0000     2.73785E-03


end timestep

