
                                  MODFLOW-NWT-SWR1 
    U.S. GEOLOGICAL SURVEY MODULAR FINITE-DIFFERENCE GROUNDWATER-FLOW MODEL
                             WITH NEWTON FORMULATION
                             Version 1.1.3, 8/01/2017                        
                    BASED ON MODFLOW-2005 Version 1.11.0 08/08/2013                       

                    SWR1 Version 1.04.0 09/15/2016                       

 Using NAME file: freyberg_transient.nam 
 Run start date and time (yyyy/mm/dd hh:mm:ss): 2018/11/28 11:07:13

 Solving:  Stress period:     1    Time step:     1    Groundwater-Flow Eqn.
 Run end date and time (yyyy/mm/dd hh:mm:ss): 2018/11/28 11:07:14
 Elapsed run time:  0.013 Seconds

  Normal termination of simulation
