                                  SEAWAT Version 4
      U.S. GEOLOGICAL SURVEY MODULAR FINITE-DIFFERENCE GROUND-WATER FLOW MODEL
                           VERSION 4.00.04 02/07/2011


 This model run combines GLOBAL and LIST output into this single file.

 GLOBAL LISTING FILE: henry_coarse.list
                         UNIT    7
# Flow                                                                                                                                                                                                  

 OPENING henry_coarse.dis
 FILE TYPE:DIS   UNIT   11   STATUS:OLD    
 FORMAT:FORMATTED              ACCESS:SEQUENTIAL          

 OPENING henry_coarse.bas
 FILE TYPE:BAS6   UNIT   13   STATUS:OLD    
 FORMAT:FORMATTED              ACCESS:SEQUENTIAL          

 OPENING henry_coarse.lpf
 FILE TYPE:LPF   UNIT   15   STATUS:OLD    
 FORMAT:FORMATTED              ACCESS:SEQUENTIAL          

 OPENING henry_coarse.gmg
 FILE TYPE:GMG   UNIT   27   STATUS:OLD    
 FORMAT:FORMATTED              ACCESS:SEQUENTIAL          

 OPENING henry_coarse.oc
 FILE TYPE:OC   UNIT   14   STATUS:OLD    
 FORMAT:FORMATTED              ACCESS:SEQUENTIAL          

 OPENING henry_coarse.hds
 FILE TYPE:DATA(BINARY)   UNIT   51   STATUS:REPLACE
 FORMAT:BINARY                 ACCESS:SEQUENTIAL          

 OPENING henry_coarse.ddn
 FILE TYPE:DATA(BINARY)   UNIT   52   STATUS:REPLACE
 FORMAT:BINARY                 ACCESS:SEQUENTIAL          

 OPENING henry_coarse.cbc
 FILE TYPE:DATA(BINARY)   UNIT   53   STATUS:REPLACE
 FORMAT:BINARY                 ACCESS:SEQUENTIAL          

 OPENING henry_coarse.ghb
 FILE TYPE:GHB   UNIT   23   STATUS:OLD    
 FORMAT:FORMATTED              ACCESS:SEQUENTIAL          

 OPENING henry_coarse.wel
 FILE TYPE:WEL   UNIT   20   STATUS:OLD    
 FORMAT:FORMATTED              ACCESS:SEQUENTIAL          

 OPENING ref_coarse\hk.ref
 FILE TYPE:DATA   UNIT  150   STATUS:UNKNOWN
 FORMAT:FORMATTED              ACCESS:SEQUENTIAL          

 OPENING ref_coarse\vk.ref
 FILE TYPE:DATA   UNIT  151   STATUS:UNKNOWN
 FORMAT:FORMATTED              ACCESS:SEQUENTIAL          
# Transport                                                                                                                                                                                             

 OPENING henry_coarse.adv
 FILE TYPE:ADV   UNIT   32   STATUS:OLD    
 FORMAT:FORMATTED              ACCESS:SEQUENTIAL          

 OPENING henry_coarse.btn
 FILE TYPE:BTN   UNIT   31   STATUS:OLD    
 FORMAT:FORMATTED              ACCESS:SEQUENTIAL          

 OPENING henry_coarse.dsp
 FILE TYPE:DSP   UNIT   33   STATUS:OLD    
 FORMAT:FORMATTED              ACCESS:SEQUENTIAL          

 OPENING henry_coarse.gcg
 FILE TYPE:GCG   UNIT   35   STATUS:OLD    
 FORMAT:FORMATTED              ACCESS:SEQUENTIAL          

 OPENING henry_coarse.ssm
 FILE TYPE:SSM   UNIT   34   STATUS:OLD    
 FORMAT:FORMATTED              ACCESS:SEQUENTIAL          

 OPENING ref_coarse\btn_top_1.ref
 FILE TYPE:DATA   UNIT  501   STATUS:UNKNOWN
 FORMAT:FORMATTED              ACCESS:SEQUENTIAL          

 OPENING ref_coarse\thk_1.ref
 FILE TYPE:DATA   UNIT  502   STATUS:UNKNOWN
 FORMAT:FORMATTED              ACCESS:SEQUENTIAL          

 OPENING ref_coarse\thk_2.ref
 FILE TYPE:DATA   UNIT  503   STATUS:UNKNOWN
 FORMAT:FORMATTED              ACCESS:SEQUENTIAL          

 OPENING ref_coarse\thk_3.ref
 FILE TYPE:DATA   UNIT  504   STATUS:UNKNOWN
 FORMAT:FORMATTED              ACCESS:SEQUENTIAL          

 OPENING ref_coarse\thk_4.ref
 FILE TYPE:DATA   UNIT  505   STATUS:UNKNOWN
 FORMAT:FORMATTED              ACCESS:SEQUENTIAL          

 OPENING ref_coarse\thk_5.ref
 FILE TYPE:DATA   UNIT  506   STATUS:UNKNOWN
 FORMAT:FORMATTED              ACCESS:SEQUENTIAL          

 OPENING ref_coarse\thk_6.ref
 FILE TYPE:DATA   UNIT  507   STATUS:UNKNOWN
 FORMAT:FORMATTED              ACCESS:SEQUENTIAL          

 OPENING ref_coarse\thk_7.ref
 FILE TYPE:DATA   UNIT  508   STATUS:UNKNOWN
 FORMAT:FORMATTED              ACCESS:SEQUENTIAL          

 OPENING ref_coarse\thk_8.ref
 FILE TYPE:DATA   UNIT  509   STATUS:UNKNOWN
 FORMAT:FORMATTED              ACCESS:SEQUENTIAL          

 OPENING ref_coarse\thk_9.ref
 FILE TYPE:DATA   UNIT  510   STATUS:UNKNOWN
 FORMAT:FORMATTED              ACCESS:SEQUENTIAL          

 OPENING ref_coarse\thk_10.ref
 FILE TYPE:DATA   UNIT  511   STATUS:UNKNOWN
 FORMAT:FORMATTED              ACCESS:SEQUENTIAL          

 OPENING ref_coarse\thk_11.ref
 FILE TYPE:DATA   UNIT  512   STATUS:UNKNOWN
 FORMAT:FORMATTED              ACCESS:SEQUENTIAL          

 OPENING ref_coarse\thk_12.ref
 FILE TYPE:DATA   UNIT  513   STATUS:UNKNOWN
 FORMAT:FORMATTED              ACCESS:SEQUENTIAL          

 OPENING ref_coarse\thk_13.ref
 FILE TYPE:DATA   UNIT  514   STATUS:UNKNOWN
 FORMAT:FORMATTED              ACCESS:SEQUENTIAL          

 OPENING ref_coarse\thk_14.ref
 FILE TYPE:DATA   UNIT  515   STATUS:UNKNOWN
 FORMAT:FORMATTED              ACCESS:SEQUENTIAL          

 OPENING ref_coarse\thk_15.ref
 FILE TYPE:DATA   UNIT  516   STATUS:UNKNOWN
 FORMAT:FORMATTED              ACCESS:SEQUENTIAL          

 OPENING ref_coarse\thk_16.ref
 FILE TYPE:DATA   UNIT  517   STATUS:UNKNOWN
 FORMAT:FORMATTED              ACCESS:SEQUENTIAL          

 OPENING ref_coarse\thk_17.ref
 FILE TYPE:DATA   UNIT  518   STATUS:UNKNOWN
 FORMAT:FORMATTED              ACCESS:SEQUENTIAL          

 OPENING ref_coarse\thk_18.ref
 FILE TYPE:DATA   UNIT  519   STATUS:UNKNOWN
 FORMAT:FORMATTED              ACCESS:SEQUENTIAL          

 OPENING ref_coarse\thk_19.ref
 FILE TYPE:DATA   UNIT  520   STATUS:UNKNOWN
 FORMAT:FORMATTED              ACCESS:SEQUENTIAL          

 OPENING ref_coarse\thk_20.ref
 FILE TYPE:DATA   UNIT  521   STATUS:UNKNOWN
 FORMAT:FORMATTED              ACCESS:SEQUENTIAL          

 OPENING ref_coarse\prsity_1.ref
 FILE TYPE:DATA   UNIT  522   STATUS:UNKNOWN
 FORMAT:FORMATTED              ACCESS:SEQUENTIAL          

 OPENING ref_coarse\prsity_2.ref
 FILE TYPE:DATA   UNIT  523   STATUS:UNKNOWN
 FORMAT:FORMATTED              ACCESS:SEQUENTIAL          

 OPENING ref_coarse\prsity_3.ref
 FILE TYPE:DATA   UNIT  524   STATUS:UNKNOWN
 FORMAT:FORMATTED              ACCESS:SEQUENTIAL          

 OPENING ref_coarse\prsity_4.ref
 FILE TYPE:DATA   UNIT  525   STATUS:UNKNOWN
 FORMAT:FORMATTED              ACCESS:SEQUENTIAL          

 OPENING ref_coarse\prsity_5.ref
 FILE TYPE:DATA   UNIT  526   STATUS:UNKNOWN
 FORMAT:FORMATTED              ACCESS:SEQUENTIAL          

 OPENING ref_coarse\prsity_6.ref
 FILE TYPE:DATA   UNIT  527   STATUS:UNKNOWN
 FORMAT:FORMATTED              ACCESS:SEQUENTIAL          

 OPENING ref_coarse\prsity_7.ref
 FILE TYPE:DATA   UNIT  528   STATUS:UNKNOWN
 FORMAT:FORMATTED              ACCESS:SEQUENTIAL          

 OPENING ref_coarse\prsity_8.ref
 FILE TYPE:DATA   UNIT  529   STATUS:UNKNOWN
 FORMAT:FORMATTED              ACCESS:SEQUENTIAL          

 OPENING ref_coarse\prsity_9.ref
 FILE TYPE:DATA   UNIT  530   STATUS:UNKNOWN
 FORMAT:FORMATTED              ACCESS:SEQUENTIAL          

 OPENING ref_coarse\prsity_10.ref
 FILE TYPE:DATA   UNIT  531   STATUS:UNKNOWN
 FORMAT:FORMATTED              ACCESS:SEQUENTIAL          

 OPENING ref_coarse\prsity_11.ref
 FILE TYPE:DATA   UNIT  532   STATUS:UNKNOWN
 FORMAT:FORMATTED              ACCESS:SEQUENTIAL          

 OPENING ref_coarse\prsity_12.ref
 FILE TYPE:DATA   UNIT  533   STATUS:UNKNOWN
 FORMAT:FORMATTED              ACCESS:SEQUENTIAL          

 OPENING ref_coarse\prsity_13.ref
 FILE TYPE:DATA   UNIT  534   STATUS:UNKNOWN
 FORMAT:FORMATTED              ACCESS:SEQUENTIAL          

 OPENING ref_coarse\prsity_14.ref
 FILE TYPE:DATA   UNIT  535   STATUS:UNKNOWN
 FORMAT:FORMATTED              ACCESS:SEQUENTIAL          

 OPENING ref_coarse\prsity_15.ref
 FILE TYPE:DATA   UNIT  536   STATUS:UNKNOWN
 FORMAT:FORMATTED              ACCESS:SEQUENTIAL          

 OPENING ref_coarse\prsity_16.ref
 FILE TYPE:DATA   UNIT  537   STATUS:UNKNOWN
 FORMAT:FORMATTED              ACCESS:SEQUENTIAL          

 OPENING ref_coarse\prsity_17.ref
 FILE TYPE:DATA   UNIT  538   STATUS:UNKNOWN
 FORMAT:FORMATTED              ACCESS:SEQUENTIAL          

 OPENING ref_coarse\prsity_18.ref
 FILE TYPE:DATA   UNIT  539   STATUS:UNKNOWN
 FORMAT:FORMATTED              ACCESS:SEQUENTIAL          

 OPENING ref_coarse\prsity_19.ref
 FILE TYPE:DATA   UNIT  540   STATUS:UNKNOWN
 FORMAT:FORMATTED              ACCESS:SEQUENTIAL          

 OPENING ref_coarse\prsity_20.ref
 FILE TYPE:DATA   UNIT  541   STATUS:UNKNOWN
 FORMAT:FORMATTED              ACCESS:SEQUENTIAL          

 OPENING ref_coarse\icbund_1.ref
 FILE TYPE:DATA   UNIT  542   STATUS:UNKNOWN
 FORMAT:FORMATTED              ACCESS:SEQUENTIAL          

 OPENING ref_coarse\icbund_2.ref
 FILE TYPE:DATA   UNIT  543   STATUS:UNKNOWN
 FORMAT:FORMATTED              ACCESS:SEQUENTIAL          

 OPENING ref_coarse\icbund_3.ref
 FILE TYPE:DATA   UNIT  544   STATUS:UNKNOWN
 FORMAT:FORMATTED              ACCESS:SEQUENTIAL          

 OPENING ref_coarse\icbund_4.ref
 FILE TYPE:DATA   UNIT  545   STATUS:UNKNOWN
 FORMAT:FORMATTED              ACCESS:SEQUENTIAL          

 OPENING ref_coarse\icbund_5.ref
 FILE TYPE:DATA   UNIT  546   STATUS:UNKNOWN
 FORMAT:FORMATTED              ACCESS:SEQUENTIAL          

 OPENING ref_coarse\icbund_6.ref
 FILE TYPE:DATA   UNIT  547   STATUS:UNKNOWN
 FORMAT:FORMATTED              ACCESS:SEQUENTIAL          

 OPENING ref_coarse\icbund_7.ref
 FILE TYPE:DATA   UNIT  548   STATUS:UNKNOWN
 FORMAT:FORMATTED              ACCESS:SEQUENTIAL          

 OPENING ref_coarse\icbund_8.ref
 FILE TYPE:DATA   UNIT  549   STATUS:UNKNOWN
 FORMAT:FORMATTED              ACCESS:SEQUENTIAL          

 OPENING ref_coarse\icbund_9.ref
 FILE TYPE:DATA   UNIT  550   STATUS:UNKNOWN
 FORMAT:FORMATTED              ACCESS:SEQUENTIAL          

 OPENING ref_coarse\icbund_10.ref
 FILE TYPE:DATA   UNIT  551   STATUS:UNKNOWN
 FORMAT:FORMATTED              ACCESS:SEQUENTIAL          

 OPENING ref_coarse\icbund_11.ref
 FILE TYPE:DATA   UNIT  552   STATUS:UNKNOWN
 FORMAT:FORMATTED              ACCESS:SEQUENTIAL          

 OPENING ref_coarse\icbund_12.ref
 FILE TYPE:DATA   UNIT  553   STATUS:UNKNOWN
 FORMAT:FORMATTED              ACCESS:SEQUENTIAL          

 OPENING ref_coarse\icbund_13.ref
 FILE TYPE:DATA   UNIT  554   STATUS:UNKNOWN
 FORMAT:FORMATTED              ACCESS:SEQUENTIAL          

 OPENING ref_coarse\icbund_14.ref
 FILE TYPE:DATA   UNIT  555   STATUS:UNKNOWN
 FORMAT:FORMATTED              ACCESS:SEQUENTIAL          

 OPENING ref_coarse\icbund_15.ref
 FILE TYPE:DATA   UNIT  556   STATUS:UNKNOWN
 FORMAT:FORMATTED              ACCESS:SEQUENTIAL          

 OPENING ref_coarse\icbund_16.ref
 FILE TYPE:DATA   UNIT  557   STATUS:UNKNOWN
 FORMAT:FORMATTED              ACCESS:SEQUENTIAL          

 OPENING ref_coarse\icbund_17.ref
 FILE TYPE:DATA   UNIT  558   STATUS:UNKNOWN
 FORMAT:FORMATTED              ACCESS:SEQUENTIAL          

 OPENING ref_coarse\icbund_18.ref
 FILE TYPE:DATA   UNIT  559   STATUS:UNKNOWN
 FORMAT:FORMATTED              ACCESS:SEQUENTIAL          

 OPENING ref_coarse\icbund_19.ref
 FILE TYPE:DATA   UNIT  560   STATUS:UNKNOWN
 FORMAT:FORMATTED              ACCESS:SEQUENTIAL          

 OPENING ref_coarse\icbund_20.ref
 FILE TYPE:DATA   UNIT  561   STATUS:UNKNOWN
 FORMAT:FORMATTED              ACCESS:SEQUENTIAL          

 OPENING ref_coarse\sconc_1_1.ref
 FILE TYPE:DATA   UNIT  562   STATUS:UNKNOWN
 FORMAT:FORMATTED              ACCESS:SEQUENTIAL          

 OPENING ref_coarse\sconc_1_2.ref
 FILE TYPE:DATA   UNIT  563   STATUS:UNKNOWN
 FORMAT:FORMATTED              ACCESS:SEQUENTIAL          

 OPENING ref_coarse\sconc_1_3.ref
 FILE TYPE:DATA   UNIT  564   STATUS:UNKNOWN
 FORMAT:FORMATTED              ACCESS:SEQUENTIAL          

 OPENING ref_coarse\sconc_1_4.ref
 FILE TYPE:DATA   UNIT  565   STATUS:UNKNOWN
 FORMAT:FORMATTED              ACCESS:SEQUENTIAL          

 OPENING ref_coarse\sconc_1_5.ref
 FILE TYPE:DATA   UNIT  566   STATUS:UNKNOWN
 FORMAT:FORMATTED              ACCESS:SEQUENTIAL          

 OPENING ref_coarse\sconc_1_6.ref
 FILE TYPE:DATA   UNIT  567   STATUS:UNKNOWN
 FORMAT:FORMATTED              ACCESS:SEQUENTIAL          

 OPENING ref_coarse\sconc_1_7.ref
 FILE TYPE:DATA   UNIT  568   STATUS:UNKNOWN
 FORMAT:FORMATTED              ACCESS:SEQUENTIAL          

 OPENING ref_coarse\sconc_1_8.ref
 FILE TYPE:DATA   UNIT  569   STATUS:UNKNOWN
 FORMAT:FORMATTED              ACCESS:SEQUENTIAL          

 OPENING ref_coarse\sconc_1_9.ref
 FILE TYPE:DATA   UNIT  570   STATUS:UNKNOWN
 FORMAT:FORMATTED              ACCESS:SEQUENTIAL          

 OPENING ref_coarse\sconc_1_10.ref
 FILE TYPE:DATA   UNIT  571   STATUS:UNKNOWN
 FORMAT:FORMATTED              ACCESS:SEQUENTIAL          

 OPENING ref_coarse\sconc_1_11.ref
 FILE TYPE:DATA   UNIT  572   STATUS:UNKNOWN
 FORMAT:FORMATTED              ACCESS:SEQUENTIAL          

 OPENING ref_coarse\sconc_1_12.ref
 FILE TYPE:DATA   UNIT  573   STATUS:UNKNOWN
 FORMAT:FORMATTED              ACCESS:SEQUENTIAL          

 OPENING ref_coarse\sconc_1_13.ref
 FILE TYPE:DATA   UNIT  574   STATUS:UNKNOWN
 FORMAT:FORMATTED              ACCESS:SEQUENTIAL          

 OPENING ref_coarse\sconc_1_14.ref
 FILE TYPE:DATA   UNIT  575   STATUS:UNKNOWN
 FORMAT:FORMATTED              ACCESS:SEQUENTIAL          

 OPENING ref_coarse\sconc_1_15.ref
 FILE TYPE:DATA   UNIT  576   STATUS:UNKNOWN
 FORMAT:FORMATTED              ACCESS:SEQUENTIAL          

 OPENING ref_coarse\sconc_1_16.ref
 FILE TYPE:DATA   UNIT  577   STATUS:UNKNOWN
 FORMAT:FORMATTED              ACCESS:SEQUENTIAL          

 OPENING ref_coarse\sconc_1_17.ref
 FILE TYPE:DATA   UNIT  578   STATUS:UNKNOWN
 FORMAT:FORMATTED              ACCESS:SEQUENTIAL          

 OPENING ref_coarse\sconc_1_18.ref
 FILE TYPE:DATA   UNIT  579   STATUS:UNKNOWN
 FORMAT:FORMATTED              ACCESS:SEQUENTIAL          

 OPENING ref_coarse\sconc_1_19.ref
 FILE TYPE:DATA   UNIT  580   STATUS:UNKNOWN
 FORMAT:FORMATTED              ACCESS:SEQUENTIAL          

 OPENING ref_coarse\sconc_1_20.ref
 FILE TYPE:DATA   UNIT  581   STATUS:UNKNOWN
 FORMAT:FORMATTED              ACCESS:SEQUENTIAL          

 OPENING ref_coarse\al_1.ref
 FILE TYPE:DATA   UNIT  582   STATUS:UNKNOWN
 FORMAT:FORMATTED              ACCESS:SEQUENTIAL          

 OPENING ref_coarse\al_2.ref
 FILE TYPE:DATA   UNIT  583   STATUS:UNKNOWN
 FORMAT:FORMATTED              ACCESS:SEQUENTIAL          

 OPENING ref_coarse\al_3.ref
 FILE TYPE:DATA   UNIT  584   STATUS:UNKNOWN
 FORMAT:FORMATTED              ACCESS:SEQUENTIAL          

 OPENING ref_coarse\al_4.ref
 FILE TYPE:DATA   UNIT  585   STATUS:UNKNOWN
 FORMAT:FORMATTED              ACCESS:SEQUENTIAL          

 OPENING ref_coarse\al_5.ref
 FILE TYPE:DATA   UNIT  586   STATUS:UNKNOWN
 FORMAT:FORMATTED              ACCESS:SEQUENTIAL          

 OPENING ref_coarse\al_6.ref
 FILE TYPE:DATA   UNIT  587   STATUS:UNKNOWN
 FORMAT:FORMATTED              ACCESS:SEQUENTIAL          

 OPENING ref_coarse\al_7.ref
 FILE TYPE:DATA   UNIT  588   STATUS:UNKNOWN
 FORMAT:FORMATTED              ACCESS:SEQUENTIAL          

 OPENING ref_coarse\al_8.ref
 FILE TYPE:DATA   UNIT  589   STATUS:UNKNOWN
 FORMAT:FORMATTED              ACCESS:SEQUENTIAL          

 OPENING ref_coarse\al_9.ref
 FILE TYPE:DATA   UNIT  590   STATUS:UNKNOWN
 FORMAT:FORMATTED              ACCESS:SEQUENTIAL          

 OPENING ref_coarse\al_10.ref
 FILE TYPE:DATA   UNIT  591   STATUS:UNKNOWN
 FORMAT:FORMATTED              ACCESS:SEQUENTIAL          

 OPENING ref_coarse\al_11.ref
 FILE TYPE:DATA   UNIT  592   STATUS:UNKNOWN
 FORMAT:FORMATTED              ACCESS:SEQUENTIAL          

 OPENING ref_coarse\al_12.ref
 FILE TYPE:DATA   UNIT  593   STATUS:UNKNOWN
 FORMAT:FORMATTED              ACCESS:SEQUENTIAL          

 OPENING ref_coarse\al_13.ref
 FILE TYPE:DATA   UNIT  594   STATUS:UNKNOWN
 FORMAT:FORMATTED              ACCESS:SEQUENTIAL          

 OPENING ref_coarse\al_14.ref
 FILE TYPE:DATA   UNIT  595   STATUS:UNKNOWN
 FORMAT:FORMATTED              ACCESS:SEQUENTIAL          

 OPENING ref_coarse\al_15.ref
 FILE TYPE:DATA   UNIT  596   STATUS:UNKNOWN
 FORMAT:FORMATTED              ACCESS:SEQUENTIAL          

 OPENING ref_coarse\al_16.ref
 FILE TYPE:DATA   UNIT  597   STATUS:UNKNOWN
 FORMAT:FORMATTED              ACCESS:SEQUENTIAL          

 OPENING ref_coarse\al_17.ref
 FILE TYPE:DATA   UNIT  598   STATUS:UNKNOWN
 FORMAT:FORMATTED              ACCESS:SEQUENTIAL          

 OPENING ref_coarse\al_18.ref
 FILE TYPE:DATA   UNIT  599   STATUS:UNKNOWN
 FORMAT:FORMATTED              ACCESS:SEQUENTIAL          

 OPENING ref_coarse\al_19.ref
 FILE TYPE:DATA   UNIT  600   STATUS:UNKNOWN
 FORMAT:FORMATTED              ACCESS:SEQUENTIAL          

 OPENING ref_coarse\al_20.ref
 FILE TYPE:DATA   UNIT  601   STATUS:UNKNOWN
 FORMAT:FORMATTED              ACCESS:SEQUENTIAL          

 OPENING ref_coarse\trpt_1.ref
 FILE TYPE:DATA   UNIT  602   STATUS:UNKNOWN
 FORMAT:FORMATTED              ACCESS:SEQUENTIAL          

 OPENING ref_coarse\trpv_1.ref
 FILE TYPE:DATA   UNIT  603   STATUS:UNKNOWN
 FORMAT:FORMATTED              ACCESS:SEQUENTIAL          

 OPENING ref_coarse\dmcoef_1.ref
 FILE TYPE:DATA   UNIT  604   STATUS:UNKNOWN
 FORMAT:FORMATTED              ACCESS:SEQUENTIAL          
# Variable density flow                                                                                                                                                                                 

 OPENING henry_coarse.vdf
 FILE TYPE:VDF   UNIT   37   STATUS:OLD    
 FORMAT:FORMATTED              ACCESS:SEQUENTIAL          

 THE FREE FORMAT OPTION HAS BEEN SELECTED

 DISCRETIZATION INPUT DATA READ FROM UNIT   11
 # Discretization file for MODFLOW, generated by Flopy.
   20 LAYERS         1 ROWS       120 COLUMNS
    2 STRESS PERIOD(S) IN SIMULATION
 MODEL TIME UNIT IS DAYS
 MODEL LENGTH UNIT IS METERS
  ----- 
 | M T | # BTN for MT3DMS, generated by Flopy.                                           
 | 3 D | #                                                                               
  ----- 
 THE TRANSPORT MODEL CONSISTS OF    20 LAYER(S)    1 ROW(S)  120 COLUMN(S)
 NUMBER OF STRESS PERIOD(S) FOR TRANSPORT SIMULATION =    2
 NUMBER OF ALL COMPONENTS INCLUDED IN SIMULATION =    1
 NUMBER OF MOBILE COMPONENTS INCLUDED IN SIMULATION =    1
 UNIT FOR TIME IS    D;  UNIT FOR LENGTH IS    M;  UNIT FOR MASS IS   KG
 OPTIONAL PACKAGES INCLUDED IN CURRENT SIMULATION:
  o ADV   ON UNIT 32
  o DSP   ON UNIT 33
  o SSM   ON UNIT 34
  o GCG   ON UNIT 35


 VDF -- VARIABLE DENSITY FLOW, VERSION 1, 2/13/2004
         INPUT READ FROM UNIT 37

 COUPLING BETWEEN FLOW AND TRANSPORT IS EXPLICIT
 VARIABLE-DENSITY WATER-TABLE CORRECTIONS NOT ADDED
 MT3DMS SPECIES USED IN EQUATION OF STATE FOR FLUID DENSITY:          1
 AN UPSTREAM-WEIGHTED ALGORITHM IS USED TO CALCULATE FLUID DENSITY TERMS THAT CONSERVE MASS
  1000.     REFERENCE DENSITY
  24.50     DENSITY SLOPE FOR EQUATION OF STATE
 DENSITY EQUATION OF STATE
 RHO =     1000.00    
  +  24.50     * ( CONC(   1) -  0.000     )



 FIRSTDT SPECIFIED BY USER IN THE VDF FILE IS:   0.1000000E-02
 THE GROUND-WATER TRANSPORT PROCESS IS INACTIVE

 THE OBSERVATION PROCESS IS INACTIVE
 THE SENSITIVITY PROCESS IS INACTIVE
 THE PARAMETER-ESTIMATION PROCESS IS INACTIVE

 MODE: FORWARD

  Confining bed flag for each layer:
   0   0   0   0   0   0   0   0   0   0   0   0   0   0   0   0   0   0   0   0

      21721  ELEMENTS OF GX ARRAY USED OUT OF      21721
       2400  ELEMENTS OF GZ ARRAY USED OUT OF       2400
       2400  ELEMENTS OF IG ARRAY USED OUT OF       2400

                     DELR =  0.100000    

                     DELC =   1.00000    

 OPENING FILE ON UNIT   99:
 ref_coarse\top_1.ref                                                                                                                                                                                    



           TOP ELEVATION OF LAYER 1
 READING ON UNIT   99 WITH FORMAT: (5G13.0)            

 OPENING FILE ON UNIT   99:
 ref_coarse\botm_1.ref                                                                                                                                                                                   



             MODEL LAYER BOTTOM EL. FOR LAYER   1
 READING ON UNIT   99 WITH FORMAT: (5G13.0)            

 OPENING FILE ON UNIT   99:
 ref_coarse\botm_2.ref                                                                                                                                                                                   



             MODEL LAYER BOTTOM EL. FOR LAYER   2
 READING ON UNIT   99 WITH FORMAT: (5G13.0)            

 OPENING FILE ON UNIT   99:
 ref_coarse\botm_3.ref                                                                                                                                                                                   



             MODEL LAYER BOTTOM EL. FOR LAYER   3
 READING ON UNIT   99 WITH FORMAT: (5G13.0)            

 OPENING FILE ON UNIT   99:
 ref_coarse\botm_4.ref                                                                                                                                                                                   



             MODEL LAYER BOTTOM EL. FOR LAYER   4
 READING ON UNIT   99 WITH FORMAT: (5G13.0)            

 OPENING FILE ON UNIT   99:
 ref_coarse\botm_5.ref                                                                                                                                                                                   



             MODEL LAYER BOTTOM EL. FOR LAYER   5
 READING ON UNIT   99 WITH FORMAT: (5G13.0)            

 OPENING FILE ON UNIT   99:
 ref_coarse\botm_6.ref                                                                                                                                                                                   



             MODEL LAYER BOTTOM EL. FOR LAYER   6
 READING ON UNIT   99 WITH FORMAT: (5G13.0)            

 OPENING FILE ON UNIT   99:
 ref_coarse\botm_7.ref                                                                                                                                                                                   



             MODEL LAYER BOTTOM EL. FOR LAYER   7
 READING ON UNIT   99 WITH FORMAT: (5G13.0)            

 OPENING FILE ON UNIT   99:
 ref_coarse\botm_8.ref                                                                                                                                                                                   



             MODEL LAYER BOTTOM EL. FOR LAYER   8
 READING ON UNIT   99 WITH FORMAT: (5G13.0)            

 OPENING FILE ON UNIT   99:
 ref_coarse\botm_9.ref                                                                                                                                                                                   



             MODEL LAYER BOTTOM EL. FOR LAYER   9
 READING ON UNIT   99 WITH FORMAT: (5G13.0)            

 OPENING FILE ON UNIT   99:
 ref_coarse\botm_10.ref                                                                                                                                                                                  



             MODEL LAYER BOTTOM EL. FOR LAYER  10
 READING ON UNIT   99 WITH FORMAT: (5G13.0)            

 OPENING FILE ON UNIT   99:
 ref_coarse\botm_11.ref                                                                                                                                                                                  



             MODEL LAYER BOTTOM EL. FOR LAYER  11
 READING ON UNIT   99 WITH FORMAT: (5G13.0)            

 OPENING FILE ON UNIT   99:
 ref_coarse\botm_12.ref                                                                                                                                                                                  



             MODEL LAYER BOTTOM EL. FOR LAYER  12
 READING ON UNIT   99 WITH FORMAT: (5G13.0)            

 OPENING FILE ON UNIT   99:
 ref_coarse\botm_13.ref                                                                                                                                                                                  



             MODEL LAYER BOTTOM EL. FOR LAYER  13
 READING ON UNIT   99 WITH FORMAT: (5G13.0)            

 OPENING FILE ON UNIT   99:
 ref_coarse\botm_14.ref                                                                                                                                                                                  



             MODEL LAYER BOTTOM EL. FOR LAYER  14
 READING ON UNIT   99 WITH FORMAT: (5G13.0)            

 OPENING FILE ON UNIT   99:
 ref_coarse\botm_15.ref                                                                                                                                                                                  



             MODEL LAYER BOTTOM EL. FOR LAYER  15
 READING ON UNIT   99 WITH FORMAT: (5G13.0)            

 OPENING FILE ON UNIT   99:
 ref_coarse\botm_16.ref                                                                                                                                                                                  



             MODEL LAYER BOTTOM EL. FOR LAYER  16
 READING ON UNIT   99 WITH FORMAT: (5G13.0)            

 OPENING FILE ON UNIT   99:
 ref_coarse\botm_17.ref                                                                                                                                                                                  



             MODEL LAYER BOTTOM EL. FOR LAYER  17
 READING ON UNIT   99 WITH FORMAT: (5G13.0)            

 OPENING FILE ON UNIT   99:
 ref_coarse\botm_18.ref                                                                                                                                                                                  



             MODEL LAYER BOTTOM EL. FOR LAYER  18
 READING ON UNIT   99 WITH FORMAT: (5G13.0)            

 OPENING FILE ON UNIT   99:
 ref_coarse\botm_19.ref                                                                                                                                                                                  



             MODEL LAYER BOTTOM EL. FOR LAYER  19
 READING ON UNIT   99 WITH FORMAT: (5G13.0)            

 OPENING FILE ON UNIT   99:
 ref_coarse\botm_20.ref                                                                                                                                                                                  



             MODEL LAYER BOTTOM EL. FOR LAYER  20
 READING ON UNIT   99 WITH FORMAT: (5G13.0)            


 STRESS PERIOD     LENGTH       TIME STEPS     MULTIPLIER FOR DELT    SS FLAG
 ----------------------------------------------------------------------------
        1         1.000000          1                    1.000         SS
        2        0.3300000          1                    1.000         TR

 COMBINED STEADY-STATE AND TRANSIENT SIMULATION




 LPF1 -- LAYER PROPERTY FLOW PACKAGE, VERSION 1, 1/11/2000
         INPUT READ FROM UNIT   15
 # LPF for MODFLOW, generated by Flopy.
 CELL-BY-CELL FLOWS WILL BE SAVED ON UNIT   53
 HEAD AT CELLS THAT CONVERT TO DRY= -1.00000E+30
 No named parameters

   LAYER FLAGS:
 LAYER       LAYTYP        LAYAVG         CHANI        LAYVKA        LAYWET
 ---------------------------------------------------------------------------
    1             1             0     1.000E+00             0             0
    2             1             0     1.000E+00             0             0
    3             1             0     1.000E+00             0             0
    4             1             0     1.000E+00             0             0
    5             1             0     1.000E+00             0             0
    6             1             0     1.000E+00             0             0
    7             1             0     1.000E+00             0             0
    8             1             0     1.000E+00             0             0
    9             1             0     1.000E+00             0             0
   10             1             0     1.000E+00             0             0
   11             1             0     1.000E+00             0             0
   12             1             0     1.000E+00             0             0
   13             1             0     1.000E+00             0             0
   14             1             0     1.000E+00             0             0
   15             1             0     1.000E+00             0             0
   16             1             0     1.000E+00             0             0
   17             1             0     1.000E+00             0             0
   18             1             0     1.000E+00             0             0
   19             1             0     1.000E+00             0             0
   20             1             0     1.000E+00             0             0

   INTERPRETATION OF LAYER FLAGS:
                        INTERBLOCK     HORIZONTAL    DATA IN
         LAYER TYPE   TRANSMISSIVITY   ANISOTROPY   ARRAY VKA   WETTABILITY
 LAYER      (LAYTYP)      (LAYAVG)       (CHANI)      (LAYVKA)      (LAYWET)
 ---------------------------------------------------------------------------
    1   CONVERTIBLE      HARMONIC     1.000E+00    VERTICAL K  NON-WETTABLE
    2   CONVERTIBLE      HARMONIC     1.000E+00    VERTICAL K  NON-WETTABLE
    3   CONVERTIBLE      HARMONIC     1.000E+00    VERTICAL K  NON-WETTABLE
    4   CONVERTIBLE      HARMONIC     1.000E+00    VERTICAL K  NON-WETTABLE
    5   CONVERTIBLE      HARMONIC     1.000E+00    VERTICAL K  NON-WETTABLE
    6   CONVERTIBLE      HARMONIC     1.000E+00    VERTICAL K  NON-WETTABLE
    7   CONVERTIBLE      HARMONIC     1.000E+00    VERTICAL K  NON-WETTABLE
    8   CONVERTIBLE      HARMONIC     1.000E+00    VERTICAL K  NON-WETTABLE
    9   CONVERTIBLE      HARMONIC     1.000E+00    VERTICAL K  NON-WETTABLE
   10   CONVERTIBLE      HARMONIC     1.000E+00    VERTICAL K  NON-WETTABLE
   11   CONVERTIBLE      HARMONIC     1.000E+00    VERTICAL K  NON-WETTABLE
   12   CONVERTIBLE      HARMONIC     1.000E+00    VERTICAL K  NON-WETTABLE
   13   CONVERTIBLE      HARMONIC     1.000E+00    VERTICAL K  NON-WETTABLE
   14   CONVERTIBLE      HARMONIC     1.000E+00    VERTICAL K  NON-WETTABLE
   15   CONVERTIBLE      HARMONIC     1.000E+00    VERTICAL K  NON-WETTABLE
   16   CONVERTIBLE      HARMONIC     1.000E+00    VERTICAL K  NON-WETTABLE
   17   CONVERTIBLE      HARMONIC     1.000E+00    VERTICAL K  NON-WETTABLE
   18   CONVERTIBLE      HARMONIC     1.000E+00    VERTICAL K  NON-WETTABLE
   19   CONVERTIBLE      HARMONIC     1.000E+00    VERTICAL K  NON-WETTABLE
   20   CONVERTIBLE      HARMONIC     1.000E+00    VERTICAL K  NON-WETTABLE

       9600 ELEMENTS IN X ARRAY ARE USED BY LPF
        120 ELEMENTS IN IX ARRAY ARE USED BY LPF
 # GMG for MODFLOW, generated by Flopy.
 -------------------------------------------------
 GMG -- PCG GEOMETRIC MULTI-GRID SOLUTION PACKAGE:
 -------------------------------------------------
 RCLOSE  = 1.00E-02; INNER CONVERGENCE CRITERION
 IITER   =       30; MAX INNER ITERATIONS            
 HCLOSE  = 1.00E-02; OUTER CONVERGENCE CRITERION
 MXIITER =     1000; MAX OUTER ITERATIONS            
 DAMP    = 1.00E+00; DAMPING PARAMETER          
 IADAMP  =        0; ADAPTIVE DAMPING FLAG           
 IOUTGMG =        0; OUTPUT CONTROL FLAG             
 ISM     =        0; SMOOTHER FLAG                   
 ISC     =        0; COARSENING FLAG                 
 RELAX   = 0.00E+00; RELAXATION PARAMETER       
 -------------------------------------------------
 ILU SMOOTHING IMPLEMENTED
 FULL COARSENING
 -------------------------------------------------
    0 MEGABYTES OF MEMORY ALLOCATED BY GMG
 -------------------------------------------------


       9600  ELEMENTS OF X ARRAY USED OUT OF       9600
          0  ELEMENTS OF Z ARRAY USED OUT OF          1
        120  ELEMENTS OF IX ARRAY USED OUT OF        120
          0  ELEMENTS OF XHS ARRAY USED OUT OF          1

 WETTING CAPABILITY IS NOT ACTIVE IN ANY LAYER



              HYD. COND. ALONG ROWS FOR LAYER   1
 READING ON UNIT  150 WITH FORMAT: (FREE)              

           1          2          3          4          5          6          7          8          9         10         11
          12         13         14         15         16         17         18         19         20         21         22
          23         24         25         26         27         28         29         30         31         32         33
          34         35         36         37         38         39         40         41         42         43         44
          45         46         47         48         49         50         51         52         53         54         55
          56         57         58         59         60         61         62         63         64         65         66
          67         68         69         70         71         72         73         74         75         76         77
          78         79         80         81         82         83         84         85         86         87         88
          89         90         91         92         93         94         95         96         97         98         99
         100        101        102        103        104        105        106        107        108        109        110
         111        112        113        114        115        116        117        118        119        120
 .........................................................................................................................
   1    200.       200.       200.       200.       200.       200.       200.       200.       200.       200.       200.    
        200.       200.       200.       200.       200.       200.       200.       200.       200.       200.       200.    
        200.       200.       200.       200.       200.       200.       200.       200.       200.       200.       200.    
        200.       200.       200.       200.       200.       200.       200.       200.       200.       200.       200.    
        200.       200.       200.       200.       200.       200.       200.       200.       200.       200.       200.    
        200.       200.       200.       200.       200.       200.       200.       200.       200.       200.       200.    
        200.       200.       200.       200.       200.       200.       200.       200.       200.       200.       200.    
        200.       200.       200.       200.       200.       200.       200.       200.       200.       200.       200.    
        200.       200.       200.       200.       200.       200.       200.       200.       200.       200.       200.    
        200.       200.       200.       200.       200.       200.       200.       200.       200.       200.       200.    
        200.       200.       200.       200.       200.       200.       200.       200.       200.       200.    



                VERTICAL HYD. COND. FOR LAYER   1
 READING ON UNIT  151 WITH FORMAT: (FREE)              

           1          2          3          4          5          6          7          8          9         10         11
          12         13         14         15         16         17         18         19         20         21         22
          23         24         25         26         27         28         29         30         31         32         33
          34         35         36         37         38         39         40         41         42         43         44
          45         46         47         48         49         50         51         52         53         54         55
          56         57         58         59         60         61         62         63         64         65         66
          67         68         69         70         71         72         73         74         75         76         77
          78         79         80         81         82         83         84         85         86         87         88
          89         90         91         92         93         94         95         96         97         98         99
         100        101        102        103        104        105        106        107        108        109        110
         111        112        113        114        115        116        117        118        119        120
 .........................................................................................................................
   1    200.       200.       200.       200.       200.       200.       200.       200.       200.       200.       200.    
        200.       200.       200.       200.       200.       200.       200.       200.       200.       200.       200.    
        200.       200.       200.       200.       200.       200.       200.       200.       200.       200.       200.    
        200.       200.       200.       200.       200.       200.       200.       200.       200.       200.       200.    
        200.       200.       200.       200.       200.       200.       200.       200.       200.       200.       200.    
        200.       200.       200.       200.       200.       200.       200.       200.       200.       200.       200.    
        200.       200.       200.       200.       200.       200.       200.       200.       200.       200.       200.    
        200.       200.       200.       200.       200.       200.       200.       200.       200.       200.       200.    
        200.       200.       200.       200.       200.       200.       200.       200.       200.       200.       200.    
        200.       200.       200.       200.       200.       200.       200.       200.       200.       200.       200.    
        200.       200.       200.       200.       200.       200.       200.       200.       200.       200.    

 OPENING FILE ON UNIT   99:
 ref_coarse\ss_1_1.ref                                                                                                                                                                                   



                   SPECIFIC STORAGE FOR LAYER   1
 READING ON UNIT   99 WITH FORMAT: (120G13.0)          

 OPENING FILE ON UNIT   99:
 ref_coarse\sy_1_1.ref                                                                                                                                                                                   



                     SPECIFIC YIELD FOR LAYER   1
 READING ON UNIT   99 WITH FORMAT: (120G13.0)          



              HYD. COND. ALONG ROWS FOR LAYER   2
 READING ON UNIT  150 WITH FORMAT: (FREE)              

           1          2          3          4          5          6          7          8          9         10         11
          12         13         14         15         16         17         18         19         20         21         22
          23         24         25         26         27         28         29         30         31         32         33
          34         35         36         37         38         39         40         41         42         43         44
          45         46         47         48         49         50         51         52         53         54         55
          56         57         58         59         60         61         62         63         64         65         66
          67         68         69         70         71         72         73         74         75         76         77
          78         79         80         81         82         83         84         85         86         87         88
          89         90         91         92         93         94         95         96         97         98         99
         100        101        102        103        104        105        106        107        108        109        110
         111        112        113        114        115        116        117        118        119        120
 .........................................................................................................................
   1    200.       200.       200.       200.       200.       200.       200.       200.       200.       200.       200.    
        200.       200.       200.       200.       200.       200.       200.       200.       200.       200.       200.    
        200.       200.       200.       200.       200.       200.       200.       200.       200.       200.       200.    
        200.       200.       200.       200.       200.       200.       200.       200.       200.       200.       200.    
        200.       200.       200.       200.       200.       200.       200.       200.       200.       200.       200.    
        200.       200.       200.       200.       200.       200.       200.       200.       200.       200.       200.    
        200.       200.       200.       200.       200.       200.       200.       200.       200.       200.       200.    
        200.       200.       200.       200.       200.       200.       200.       200.       200.       200.       200.    
        200.       200.       200.       200.       200.       200.       200.       200.       200.       200.       200.    
        200.       200.       200.       200.       200.       200.       200.       200.       200.       200.       200.    
        200.       200.       200.       200.       200.       200.       200.       200.       200.       200.    



                VERTICAL HYD. COND. FOR LAYER   2
 READING ON UNIT  151 WITH FORMAT: (FREE)              

           1          2          3          4          5          6          7          8          9         10         11
          12         13         14         15         16         17         18         19         20         21         22
          23         24         25         26         27         28         29         30         31         32         33
          34         35         36         37         38         39         40         41         42         43         44
          45         46         47         48         49         50         51         52         53         54         55
          56         57         58         59         60         61         62         63         64         65         66
          67         68         69         70         71         72         73         74         75         76         77
          78         79         80         81         82         83         84         85         86         87         88
          89         90         91         92         93         94         95         96         97         98         99
         100        101        102        103        104        105        106        107        108        109        110
         111        112        113        114        115        116        117        118        119        120
 .........................................................................................................................
   1    200.       200.       200.       200.       200.       200.       200.       200.       200.       200.       200.    
        200.       200.       200.       200.       200.       200.       200.       200.       200.       200.       200.    
        200.       200.       200.       200.       200.       200.       200.       200.       200.       200.       200.    
        200.       200.       200.       200.       200.       200.       200.       200.       200.       200.       200.    
        200.       200.       200.       200.       200.       200.       200.       200.       200.       200.       200.    
        200.       200.       200.       200.       200.       200.       200.       200.       200.       200.       200.    
        200.       200.       200.       200.       200.       200.       200.       200.       200.       200.       200.    
        200.       200.       200.       200.       200.       200.       200.       200.       200.       200.       200.    
        200.       200.       200.       200.       200.       200.       200.       200.       200.       200.       200.    
        200.       200.       200.       200.       200.       200.       200.       200.       200.       200.       200.    
        200.       200.       200.       200.       200.       200.       200.       200.       200.       200.    

 OPENING FILE ON UNIT   99:
 ref_coarse\ss_2_1.ref                                                                                                                                                                                   



                   SPECIFIC STORAGE FOR LAYER   2
 READING ON UNIT   99 WITH FORMAT: (120G13.0)          

 OPENING FILE ON UNIT   99:
 ref_coarse\sy_2_1.ref                                                                                                                                                                                   



                     SPECIFIC YIELD FOR LAYER   2
 READING ON UNIT   99 WITH FORMAT: (120G13.0)          



              HYD. COND. ALONG ROWS FOR LAYER   3
 READING ON UNIT  150 WITH FORMAT: (FREE)              

           1          2          3          4          5          6          7          8          9         10         11
          12         13         14         15         16         17         18         19         20         21         22
          23         24         25         26         27         28         29         30         31         32         33
          34         35         36         37         38         39         40         41         42         43         44
          45         46         47         48         49         50         51         52         53         54         55
          56         57         58         59         60         61         62         63         64         65         66
          67         68         69         70         71         72         73         74         75         76         77
          78         79         80         81         82         83         84         85         86         87         88
          89         90         91         92         93         94         95         96         97         98         99
         100        101        102        103        104        105        106        107        108        109        110
         111        112        113        114        115        116        117        118        119        120
 .........................................................................................................................
   1    200.       200.       200.       200.       200.       200.       200.       200.       200.       200.       200.    
        200.       200.       200.       200.       200.       200.       200.       200.       200.       200.       200.    
        200.       200.       200.       200.       200.       200.       200.       200.       200.       200.       200.    
        200.       200.       200.       200.       200.       200.       200.       200.       200.       200.       200.    
        200.       200.       200.       200.       200.       200.       200.       200.       200.       200.       200.    
        200.       200.       200.       200.       200.       200.       200.       200.       200.       200.       200.    
        200.       200.       200.       200.       200.       200.       200.       200.       200.       200.       200.    
        200.       200.       200.       200.       200.       200.       200.       200.       200.       200.       200.    
        200.       200.       200.       200.       200.       200.       200.       200.       200.       200.       200.    
        200.       200.       200.       200.       200.       200.       200.       200.       200.       200.       200.    
        200.       200.       200.       200.       200.       200.       200.       200.       200.       200.    



                VERTICAL HYD. COND. FOR LAYER   3
 READING ON UNIT  151 WITH FORMAT: (FREE)              

           1          2          3          4          5          6          7          8          9         10         11
          12         13         14         15         16         17         18         19         20         21         22
          23         24         25         26         27         28         29         30         31         32         33
          34         35         36         37         38         39         40         41         42         43         44
          45         46         47         48         49         50         51         52         53         54         55
          56         57         58         59         60         61         62         63         64         65         66
          67         68         69         70         71         72         73         74         75         76         77
          78         79         80         81         82         83         84         85         86         87         88
          89         90         91         92         93         94         95         96         97         98         99
         100        101        102        103        104        105        106        107        108        109        110
         111        112        113        114        115        116        117        118        119        120
 .........................................................................................................................
   1    200.       200.       200.       200.       200.       200.       200.       200.       200.       200.       200.    
        200.       200.       200.       200.       200.       200.       200.       200.       200.       200.       200.    
        200.       200.       200.       200.       200.       200.       200.       200.       200.       200.       200.    
        200.       200.       200.       200.       200.       200.       200.       200.       200.       200.       200.    
        200.       200.       200.       200.       200.       200.       200.       200.       200.       200.       200.    
        200.       200.       200.       200.       200.       200.       200.       200.       200.       200.       200.    
        200.       200.       200.       200.       200.       200.       200.       200.       200.       200.       200.    
        200.       200.       200.       200.       200.       200.       200.       200.       200.       200.       200.    
        200.       200.       200.       200.       200.       200.       200.       200.       200.       200.       200.    
        200.       200.       200.       200.       200.       200.       200.       200.       200.       200.       200.    
        200.       200.       200.       200.       200.       200.       200.       200.       200.       200.    

 OPENING FILE ON UNIT   99:
 ref_coarse\ss_3_1.ref                                                                                                                                                                                   



                   SPECIFIC STORAGE FOR LAYER   3
 READING ON UNIT   99 WITH FORMAT: (120G13.0)          

 OPENING FILE ON UNIT   99:
 ref_coarse\sy_3_1.ref                                                                                                                                                                                   



                     SPECIFIC YIELD FOR LAYER   3
 READING ON UNIT   99 WITH FORMAT: (120G13.0)          



              HYD. COND. ALONG ROWS FOR LAYER   4
 READING ON UNIT  150 WITH FORMAT: (FREE)              

           1          2          3          4          5          6          7          8          9         10         11
          12         13         14         15         16         17         18         19         20         21         22
          23         24         25         26         27         28         29         30         31         32         33
          34         35         36         37         38         39         40         41         42         43         44
          45         46         47         48         49         50         51         52         53         54         55
          56         57         58         59         60         61         62         63         64         65         66
          67         68         69         70         71         72         73         74         75         76         77
          78         79         80         81         82         83         84         85         86         87         88
          89         90         91         92         93         94         95         96         97         98         99
         100        101        102        103        104        105        106        107        108        109        110
         111        112        113        114        115        116        117        118        119        120
 .........................................................................................................................
   1    200.       200.       200.       200.       200.       200.       200.       200.       200.       200.       200.    
        200.       200.       200.       200.       200.       200.       200.       200.       200.       200.       200.    
        200.       200.       200.       200.       200.       200.       200.       200.       200.       200.       200.    
        200.       200.       200.       200.       200.       200.       200.       200.       200.       200.       200.    
        200.       200.       200.       200.       200.       200.       200.       200.       200.       200.       200.    
        200.       200.       200.       200.       200.       200.       200.       200.       200.       200.       200.    
        200.       200.       200.       200.       200.       200.       200.       200.       200.       200.       200.    
        200.       200.       200.       200.       200.       200.       200.       200.       200.       200.       200.    
        200.       200.       200.       200.       200.       200.       200.       200.       200.       200.       200.    
        200.       200.       200.       200.       200.       200.       200.       200.       200.       200.       200.    
        200.       200.       200.       200.       200.       200.       200.       200.       200.       200.    



                VERTICAL HYD. COND. FOR LAYER   4
 READING ON UNIT  151 WITH FORMAT: (FREE)              

           1          2          3          4          5          6          7          8          9         10         11
          12         13         14         15         16         17         18         19         20         21         22
          23         24         25         26         27         28         29         30         31         32         33
          34         35         36         37         38         39         40         41         42         43         44
          45         46         47         48         49         50         51         52         53         54         55
          56         57         58         59         60         61         62         63         64         65         66
          67         68         69         70         71         72         73         74         75         76         77
          78         79         80         81         82         83         84         85         86         87         88
          89         90         91         92         93         94         95         96         97         98         99
         100        101        102        103        104        105        106        107        108        109        110
         111        112        113        114        115        116        117        118        119        120
 .........................................................................................................................
   1    200.       200.       200.       200.       200.       200.       200.       200.       200.       200.       200.    
        200.       200.       200.       200.       200.       200.       200.       200.       200.       200.       200.    
        200.       200.       200.       200.       200.       200.       200.       200.       200.       200.       200.    
        200.       200.       200.       200.       200.       200.       200.       200.       200.       200.       200.    
        200.       200.       200.       200.       200.       200.       200.       200.       200.       200.       200.    
        200.       200.       200.       200.       200.       200.       200.       200.       200.       200.       200.    
        200.       200.       200.       200.       200.       200.       200.       200.       200.       200.       200.    
        200.       200.       200.       200.       200.       200.       200.       200.       200.       200.       200.    
        200.       200.       200.       200.       200.       200.       200.       200.       200.       200.       200.    
        200.       200.       200.       200.       200.       200.       200.       200.       200.       200.       200.    
        200.       200.       200.       200.       200.       200.       200.       200.       200.       200.    

 OPENING FILE ON UNIT   99:
 ref_coarse\ss_4_1.ref                                                                                                                                                                                   



                   SPECIFIC STORAGE FOR LAYER   4
 READING ON UNIT   99 WITH FORMAT: (120G13.0)          

 OPENING FILE ON UNIT   99:
 ref_coarse\sy_4_1.ref                                                                                                                                                                                   



                     SPECIFIC YIELD FOR LAYER   4
 READING ON UNIT   99 WITH FORMAT: (120G13.0)          



              HYD. COND. ALONG ROWS FOR LAYER   5
 READING ON UNIT  150 WITH FORMAT: (FREE)              

           1          2          3          4          5          6          7          8          9         10         11
          12         13         14         15         16         17         18         19         20         21         22
          23         24         25         26         27         28         29         30         31         32         33
          34         35         36         37         38         39         40         41         42         43         44
          45         46         47         48         49         50         51         52         53         54         55
          56         57         58         59         60         61         62         63         64         65         66
          67         68         69         70         71         72         73         74         75         76         77
          78         79         80         81         82         83         84         85         86         87         88
          89         90         91         92         93         94         95         96         97         98         99
         100        101        102        103        104        105        106        107        108        109        110
         111        112        113        114        115        116        117        118        119        120
 .........................................................................................................................
   1    200.       200.       200.       200.       200.       200.       200.       200.       200.       200.       200.    
        200.       200.       200.       200.       200.       200.       200.       200.       200.       200.       200.    
        200.       200.       200.       200.       200.       200.       200.       200.       200.       200.       200.    
        200.       200.       200.       200.       200.       200.       200.       200.       200.       200.       200.    
        200.       200.       200.       200.       200.       200.       200.       200.       200.       200.       200.    
        200.       200.       200.       200.       200.       200.       200.       200.       200.       200.       200.    
        200.       200.       200.       200.       200.       200.       200.       200.       200.       200.       200.    
        200.       200.       200.       200.       200.       200.       200.       200.       200.       200.       200.    
        200.       200.       200.       200.       200.       200.       200.       200.       200.       200.       200.    
        200.       200.       200.       200.       200.       200.       200.       200.       200.       200.       200.    
        200.       200.       200.       200.       200.       200.       200.       200.       200.       200.    



                VERTICAL HYD. COND. FOR LAYER   5
 READING ON UNIT  151 WITH FORMAT: (FREE)              

           1          2          3          4          5          6          7          8          9         10         11
          12         13         14         15         16         17         18         19         20         21         22
          23         24         25         26         27         28         29         30         31         32         33
          34         35         36         37         38         39         40         41         42         43         44
          45         46         47         48         49         50         51         52         53         54         55
          56         57         58         59         60         61         62         63         64         65         66
          67         68         69         70         71         72         73         74         75         76         77
          78         79         80         81         82         83         84         85         86         87         88
          89         90         91         92         93         94         95         96         97         98         99
         100        101        102        103        104        105        106        107        108        109        110
         111        112        113        114        115        116        117        118        119        120
 .........................................................................................................................
   1    200.       200.       200.       200.       200.       200.       200.       200.       200.       200.       200.    
        200.       200.       200.       200.       200.       200.       200.       200.       200.       200.       200.    
        200.       200.       200.       200.       200.       200.       200.       200.       200.       200.       200.    
        200.       200.       200.       200.       200.       200.       200.       200.       200.       200.       200.    
        200.       200.       200.       200.       200.       200.       200.       200.       200.       200.       200.    
        200.       200.       200.       200.       200.       200.       200.       200.       200.       200.       200.    
        200.       200.       200.       200.       200.       200.       200.       200.       200.       200.       200.    
        200.       200.       200.       200.       200.       200.       200.       200.       200.       200.       200.    
        200.       200.       200.       200.       200.       200.       200.       200.       200.       200.       200.    
        200.       200.       200.       200.       200.       200.       200.       200.       200.       200.       200.    
        200.       200.       200.       200.       200.       200.       200.       200.       200.       200.    

 OPENING FILE ON UNIT   99:
 ref_coarse\ss_5_1.ref                                                                                                                                                                                   



                   SPECIFIC STORAGE FOR LAYER   5
 READING ON UNIT   99 WITH FORMAT: (120G13.0)          

 OPENING FILE ON UNIT   99:
 ref_coarse\sy_5_1.ref                                                                                                                                                                                   



                     SPECIFIC YIELD FOR LAYER   5
 READING ON UNIT   99 WITH FORMAT: (120G13.0)          



              HYD. COND. ALONG ROWS FOR LAYER   6
 READING ON UNIT  150 WITH FORMAT: (FREE)              

           1          2          3          4          5          6          7          8          9         10         11
          12         13         14         15         16         17         18         19         20         21         22
          23         24         25         26         27         28         29         30         31         32         33
          34         35         36         37         38         39         40         41         42         43         44
          45         46         47         48         49         50         51         52         53         54         55
          56         57         58         59         60         61         62         63         64         65         66
          67         68         69         70         71         72         73         74         75         76         77
          78         79         80         81         82         83         84         85         86         87         88
          89         90         91         92         93         94         95         96         97         98         99
         100        101        102        103        104        105        106        107        108        109        110
         111        112        113        114        115        116        117        118        119        120
 .........................................................................................................................
   1    200.       200.       200.       200.       200.       200.       200.       200.       200.       200.       200.    
        200.       200.       200.       200.       200.       200.       200.       200.       200.       200.       200.    
        200.       200.       200.       200.       200.       200.       200.       200.       200.       200.       200.    
        200.       200.       200.       200.       200.       200.       200.       200.       200.       200.       200.    
        200.       200.       200.       200.       200.       200.       200.       200.       200.       200.       200.    
        200.       200.       200.       200.       200.       200.       200.       200.       200.       200.       200.    
        200.       200.       200.       200.       200.       200.       200.       200.       200.       200.       200.    
        200.       200.       200.       200.       200.       200.       200.       200.       200.       200.       200.    
        200.       200.       200.       200.       200.       200.       200.       200.       200.       200.       200.    
        200.       200.       200.       200.       200.       200.       200.       200.       200.       200.       200.    
        200.       200.       200.       200.       200.       200.       200.       200.       200.       200.    



                VERTICAL HYD. COND. FOR LAYER   6
 READING ON UNIT  151 WITH FORMAT: (FREE)              

           1          2          3          4          5          6          7          8          9         10         11
          12         13         14         15         16         17         18         19         20         21         22
          23         24         25         26         27         28         29         30         31         32         33
          34         35         36         37         38         39         40         41         42         43         44
          45         46         47         48         49         50         51         52         53         54         55
          56         57         58         59         60         61         62         63         64         65         66
          67         68         69         70         71         72         73         74         75         76         77
          78         79         80         81         82         83         84         85         86         87         88
          89         90         91         92         93         94         95         96         97         98         99
         100        101        102        103        104        105        106        107        108        109        110
         111        112        113        114        115        116        117        118        119        120
 .........................................................................................................................
   1    200.       200.       200.       200.       200.       200.       200.       200.       200.       200.       200.    
        200.       200.       200.       200.       200.       200.       200.       200.       200.       200.       200.    
        200.       200.       200.       200.       200.       200.       200.       200.       200.       200.       200.    
        200.       200.       200.       200.       200.       200.       200.       200.       200.       200.       200.    
        200.       200.       200.       200.       200.       200.       200.       200.       200.       200.       200.    
        200.       200.       200.       200.       200.       200.       200.       200.       200.       200.       200.    
        200.       200.       200.       200.       200.       200.       200.       200.       200.       200.       200.    
        200.       200.       200.       200.       200.       200.       200.       200.       200.       200.       200.    
        200.       200.       200.       200.       200.       200.       200.       200.       200.       200.       200.    
        200.       200.       200.       200.       200.       200.       200.       200.       200.       200.       200.    
        200.       200.       200.       200.       200.       200.       200.       200.       200.       200.    

 OPENING FILE ON UNIT   99:
 ref_coarse\ss_6_1.ref                                                                                                                                                                                   



                   SPECIFIC STORAGE FOR LAYER   6
 READING ON UNIT   99 WITH FORMAT: (120G13.0)          

 OPENING FILE ON UNIT   99:
 ref_coarse\sy_6_1.ref                                                                                                                                                                                   



                     SPECIFIC YIELD FOR LAYER   6
 READING ON UNIT   99 WITH FORMAT: (120G13.0)          



              HYD. COND. ALONG ROWS FOR LAYER   7
 READING ON UNIT  150 WITH FORMAT: (FREE)              

           1          2          3          4          5          6          7          8          9         10         11
          12         13         14         15         16         17         18         19         20         21         22
          23         24         25         26         27         28         29         30         31         32         33
          34         35         36         37         38         39         40         41         42         43         44
          45         46         47         48         49         50         51         52         53         54         55
          56         57         58         59         60         61         62         63         64         65         66
          67         68         69         70         71         72         73         74         75         76         77
          78         79         80         81         82         83         84         85         86         87         88
          89         90         91         92         93         94         95         96         97         98         99
         100        101        102        103        104        105        106        107        108        109        110
         111        112        113        114        115        116        117        118        119        120
 .........................................................................................................................
   1    200.       200.       200.       200.       200.       200.       200.       200.       200.       200.       200.    
        200.       200.       200.       200.       200.       200.       200.       200.       200.       200.       200.    
        200.       200.       200.       200.       200.       200.       200.       200.       200.       200.       200.    
        200.       200.       200.       200.       200.       200.       200.       200.       200.       200.       200.    
        200.       200.       200.       200.       200.       200.       200.       200.       200.       200.       200.    
        200.       200.       200.       200.       200.       200.       200.       200.       200.       200.       200.    
        200.       200.       200.       200.       200.       200.       200.       200.       200.       200.       200.    
        200.       200.       200.       200.       200.       200.       200.       200.       200.       200.       200.    
        200.       200.       200.       200.       200.       200.       200.       200.       200.       200.       200.    
        200.       200.       200.       200.       200.       200.       200.       200.       200.       200.       200.    
        200.       200.       200.       200.       200.       200.       200.       200.       200.       200.    



                VERTICAL HYD. COND. FOR LAYER   7
 READING ON UNIT  151 WITH FORMAT: (FREE)              

           1          2          3          4          5          6          7          8          9         10         11
          12         13         14         15         16         17         18         19         20         21         22
          23         24         25         26         27         28         29         30         31         32         33
          34         35         36         37         38         39         40         41         42         43         44
          45         46         47         48         49         50         51         52         53         54         55
          56         57         58         59         60         61         62         63         64         65         66
          67         68         69         70         71         72         73         74         75         76         77
          78         79         80         81         82         83         84         85         86         87         88
          89         90         91         92         93         94         95         96         97         98         99
         100        101        102        103        104        105        106        107        108        109        110
         111        112        113        114        115        116        117        118        119        120
 .........................................................................................................................
   1    200.       200.       200.       200.       200.       200.       200.       200.       200.       200.       200.    
        200.       200.       200.       200.       200.       200.       200.       200.       200.       200.       200.    
        200.       200.       200.       200.       200.       200.       200.       200.       200.       200.       200.    
        200.       200.       200.       200.       200.       200.       200.       200.       200.       200.       200.    
        200.       200.       200.       200.       200.       200.       200.       200.       200.       200.       200.    
        200.       200.       200.       200.       200.       200.       200.       200.       200.       200.       200.    
        200.       200.       200.       200.       200.       200.       200.       200.       200.       200.       200.    
        200.       200.       200.       200.       200.       200.       200.       200.       200.       200.       200.    
        200.       200.       200.       200.       200.       200.       200.       200.       200.       200.       200.    
        200.       200.       200.       200.       200.       200.       200.       200.       200.       200.       200.    
        200.       200.       200.       200.       200.       200.       200.       200.       200.       200.    

 OPENING FILE ON UNIT   99:
 ref_coarse\ss_7_1.ref                                                                                                                                                                                   



                   SPECIFIC STORAGE FOR LAYER   7
 READING ON UNIT   99 WITH FORMAT: (120G13.0)          

 OPENING FILE ON UNIT   99:
 ref_coarse\sy_7_1.ref                                                                                                                                                                                   



                     SPECIFIC YIELD FOR LAYER   7
 READING ON UNIT   99 WITH FORMAT: (120G13.0)          



              HYD. COND. ALONG ROWS FOR LAYER   8
 READING ON UNIT  150 WITH FORMAT: (FREE)              

           1          2          3          4          5          6          7          8          9         10         11
          12         13         14         15         16         17         18         19         20         21         22
          23         24         25         26         27         28         29         30         31         32         33
          34         35         36         37         38         39         40         41         42         43         44
          45         46         47         48         49         50         51         52         53         54         55
          56         57         58         59         60         61         62         63         64         65         66
          67         68         69         70         71         72         73         74         75         76         77
          78         79         80         81         82         83         84         85         86         87         88
          89         90         91         92         93         94         95         96         97         98         99
         100        101        102        103        104        105        106        107        108        109        110
         111        112        113        114        115        116        117        118        119        120
[...]
   1   1.016E-77  9.466E-77  8.779E-76  8.103E-75  7.444E-74  6.807E-73  6.196E-72  5.613E-71  5.061E-70  4.543E-69  4.059E-68

          23         24         25         26         27         28         29         30         31         32         33
 .........................................................................................................................
   1   3.610E-67  3.196E-66  2.817E-65  2.471E-64  2.159E-63  1.877E-62  1.626E-61  1.402E-60  1.204E-59  1.030E-58  8.781E-58

          34         35         36         37         38         39         40         41         42         43         44
 .........................................................................................................................
   1   7.458E-57  6.315E-56  5.333E-55  4.497E-54  3.790E-53  3.201E-52  2.718E-51  2.333E-50  2.042E-49  1.843E-48  1.740E-47

          45         46         47         48         49         50         51         52         53         54         55
 .........................................................................................................................
   1   1.740E-46  1.860E-45  2.122E-44  2.558E-43  3.210E-42  4.134E-41  5.400E-40  7.094E-39  9.318E-38  1.219E-36  1.585E-35

          56         57         58         59         60         61         62         63         64         65         66
 .........................................................................................................................
   1   2.045E-34  2.614E-33  3.310E-32  4.146E-31  5.135E-30  6.288E-29  7.605E-28  9.083E-27  1.070E-25  1.244E-24  1.424E-23

          67         68         69         70         71         72         73         74         75         76         77
 .........................................................................................................................
   1   1.606E-22  1.781E-21  1.942E-20  2.078E-19  2.179E-18  2.237E-17  2.244E-16  2.195E-15  2.088E-14  1.927E-13  1.720E-12

          78         79         80         81         82         83         84         85         86         87         88
 .........................................................................................................................
   1   1.478E-11  1.219E-10  9.592E-10  7.160E-09  5.034E-08  3.307E-07  2.011E-06  1.120E-05  5.636E-05  2.531E-04  1.000E-03

          89         90         91         92         93         94         95         96         97         98         99
 .........................................................................................................................
   1   3.426E-03  1.005E-02  2.498E-02  5.268E-02  9.557E-02  0.153      0.221      0.297      0.377      0.457      0.535    

         100        101        102        103        104        105        106        107        108        109        110
 .........................................................................................................................
   1   0.608      0.676      0.737      0.791      0.837      0.874      0.904      0.928      0.947      0.963      0.974    

         111        112        113        114        115        116        117        118        119        120
 ..............................................................................................................
   1   0.983      0.989      0.993      0.996      0.998      0.999       1.00       1.00       1.00       1.00    

                     CONCENTRATIONS   IN LAYER 18 AT END OF TRANSPORT STEP  133, TIME STEP  1, STRESS PERIOD  2
                     ------------------------------------------------------------------------------------------

           1          2          3          4          5          6          7          8          9         10         11
 .........................................................................................................................
   1   1.991E-88  1.773E-87  1.729E-86  1.680E-85  1.624E-84  1.564E-83  1.499E-82  1.430E-81  1.357E-80  1.283E-79  1.207E-78

          12         13         14         15         16         17         18         19         20         21         22
 .........................................................................................................................
   1   1.130E-77  1.053E-76  9.774E-76  9.025E-75  8.295E-74  7.589E-73  6.910E-72  6.263E-71  5.651E-70  5.075E-69  4.537E-68

          23         24         25         26         27         28         29         30         31         32         33
 .........................................................................................................................
   1   4.037E-67  3.576E-66  3.154E-65  2.769E-64  2.420E-63  2.106E-62  1.826E-61  1.576E-60  1.354E-59  1.160E-58  9.896E-58

          34         35         36         37         38         39         40         41         42         43         44
 .........................................................................................................................
   1   8.415E-57  7.135E-56  6.035E-55  5.099E-54  4.310E-53  3.653E-52  3.119E-51  2.700E-50  2.393E-49  2.199E-48  2.127E-47

          45         46         47         48         49         50         51         52         53         54         55
 .........................................................................................................................
   1   2.191E-46  2.418E-45  2.842E-44  3.514E-43  4.500E-42  5.887E-41  7.784E-40  1.033E-38  1.368E-37  1.803E-36  2.361E-35

          56         57         58         59         60         61         62         63         64         65         66
 .........................................................................................................................
   1   3.067E-34  3.949E-33  5.033E-32  6.350E-31  7.925E-30  9.778E-29  1.192E-27  1.436E-26  1.707E-25  2.002E-24  2.315E-23

          67         68         69         70         71         72         73         74         75         76         77
 .........................................................................................................................
   1   2.637E-22  2.956E-21  3.259E-20  3.529E-19  3.748E-18  3.898E-17  3.965E-16  3.935E-15  3.801E-14  3.565E-13  3.235E-12

          78         79         80         81         82         83         84         85         86         87         88
 .........................................................................................................................
   1   2.830E-11  2.377E-10  1.906E-09  1.450E-08  1.040E-07  6.962E-07  4.309E-06  2.436E-05  1.240E-04  5.590E-04  2.194E-03

          89         90         91         92         93         94         95         96         97         98         99
 .........................................................................................................................
   1   7.365E-03  2.081E-02  4.904E-02  9.693E-02  0.164      0.245      0.334      0.424      0.511      0.591      0.664    

         100        101        102        103        104        105        106        107        108        109        110
 .........................................................................................................................
   1   0.728      0.784      0.830      0.867      0.898      0.923      0.942      0.958      0.970      0.979      0.986    

         111        112        113        114        115        116        117        118        119        120
 ..............................................................................................................
   1   0.991      0.994      0.997      0.998      0.999       1.00       1.00       1.00       1.00       1.00    

                     CONCENTRATIONS   IN LAYER 19 AT END OF TRANSPORT STEP  133, TIME STEP  1, STRESS PERIOD  2
                     ------------------------------------------------------------------------------------------

           1          2          3          4          5          6          7          8          9         10         11
 .........................................................................................................................
   1   2.133E-88  1.900E-87  1.853E-86  1.800E-85  1.742E-84  1.677E-83  1.607E-82  1.534E-81  1.457E-80  1.377E-79  1.296E-78

          12         13         14         15         16         17         18         19         20         21         22
 .........................................................................................................................
   1   1.214E-77  1.132E-76  1.050E-75  9.700E-75  8.918E-74  8.161E-73  7.434E-72  6.740E-71  6.083E-70  5.465E-69  4.887E-68

          23         24         25         26         27         28         29         30         31         32         33
 .........................................................................................................................
   1   4.350E-67  3.855E-66  3.401E-65  2.988E-64  2.613E-63  2.275E-62  1.973E-61  1.704E-60  1.465E-59  1.256E-58  1.072E-57

          34         35         36         37         38         39         40         41         42         43         44
 .........................................................................................................................
   1   9.124E-57  7.743E-56  6.557E-55  5.548E-54  4.698E-53  3.994E-52  3.425E-51  2.984E-50  2.670E-49  2.488E-48  2.449E-47

          45         46         47         48         49         50         51         52         53         54         55
 .........................................................................................................................
   1   2.577E-46  2.905E-45  3.483E-44  4.377E-43  5.678E-42  7.502E-41  9.997E-40  1.335E-38  1.778E-37  2.356E-36  3.101E-35

          56         57         58         59         60         61         62         63         64         65         66
 .........................................................................................................................
   1   4.047E-34  5.236E-33  6.708E-32  8.506E-31  1.067E-29  1.324E-28  1.624E-27  1.969E-26  2.356E-25  2.782E-24  3.241E-23

          67         68         69         70         71         72         73         74         75         76         77
 .........................................................................................................................
   1   3.721E-22  4.206E-21  4.678E-20  5.113E-19  5.485E-18  5.766E-17  5.932E-16  5.958E-15  5.831E-14  5.545E-13  5.109E-12

          78         79         80         81         82         83         84         85         86         87         88
 .........................................................................................................................
   1   4.542E-11  3.881E-10  3.170E-09  2.460E-08  1.802E-07  1.234E-06  7.815E-06  4.520E-05  2.348E-04  1.075E-03  4.239E-03

          89         90         91         92         93         94         95         96         97         98         99
 .........................................................................................................................
   1   1.406E-02  3.847E-02  8.613E-02  0.160      0.253      0.356      0.457      0.552      0.635      0.707      0.768    

         100        101        102        103        104        105        106        107        108        109        110
 .........................................................................................................................
   1   0.817      0.858      0.890      0.916      0.936      0.953      0.965      0.975      0.982      0.988      0.992    

         111        112        113        114        115        116        117        118        119        120
 ..............................................................................................................
   1   0.995      0.997      0.998      0.999      0.999       1.00       1.00       1.00       1.00       1.00    

                     CONCENTRATIONS   IN LAYER 20 AT END OF TRANSPORT STEP  133, TIME STEP  1, STRESS PERIOD  2
                     ------------------------------------------------------------------------------------------

           1          2          3          4          5          6          7          8          9         10         11
 .........................................................................................................................
   1   2.208E-88  1.967E-87  1.918E-86  1.864E-85  1.803E-84  1.737E-83  1.665E-82  1.589E-81  1.509E-80  1.427E-79  1.343E-78

          12         13         14         15         16         17         18         19         20         21         22
 .........................................................................................................................
   1   1.258E-77  1.173E-76  1.089E-75  1.006E-74  9.247E-74  8.463E-73  7.711E-72  6.992E-71  6.312E-70  5.671E-69  5.073E-68

          23         24         25         26         27         28         29         30         31         32         33
 .........................................................................................................................
   1   4.517E-67  4.003E-66  3.533E-65  3.104E-64  2.715E-63  2.365E-62  2.051E-61  1.772E-60  1.524E-59  1.307E-58  1.116E-57

          34         35         36         37         38         39         40         41         42         43         44
 .........................................................................................................................
   1   9.501E-57  8.067E-56  6.836E-55  5.788E-54  4.907E-53  4.178E-52  3.591E-51  3.140E-50  2.824E-49  2.650E-48  2.635E-47

          45         46         47         48         49         50         51         52         53         54         55
 .........................................................................................................................
   1   2.802E-46  3.194E-45  3.866E-44  4.898E-43  6.393E-42  8.488E-41  1.135E-39  1.521E-38  2.031E-37  2.699E-36  3.561E-35

          56         57         58         59         60         61         62         63         64         65         66
 .........................................................................................................................
   1   4.660E-34  6.044E-33  7.764E-32  9.874E-31  1.242E-29  1.546E-28  1.903E-27  2.314E-26  2.779E-25  3.295E-24  3.854E-23

          67         68         69         70         71         72         73         74         75         76         77
 .........................................................................................................................
   1   4.444E-22  5.047E-21  5.642E-20  6.200E-19  6.690E-18  7.078E-17  7.331E-16  7.419E-15  7.320E-14  7.024E-13  6.535E-12

          78         79         80         81         82         83         84         85         86         87         88
 .........................................................................................................................
   1   5.874E-11  5.080E-10  4.208E-09  3.317E-08  2.473E-07  1.728E-06  1.120E-05  6.653E-05  3.558E-04  1.676E-03  6.749E-03

          89         90         91         92         93         94         95         96         97         98         99
 .........................................................................................................................
   1   2.248E-02  6.027E-02  0.129      0.227      0.340      0.452      0.555      0.643      0.717      0.777      0.826    

         100        101        102        103        104        105        106        107        108        109        110
 .........................................................................................................................
   1   0.865      0.896      0.921      0.940      0.955      0.967      0.976      0.983      0.988      0.992      0.995    

         111        112        113        114        115        116        117        118        119        120
 ..............................................................................................................
   1   0.997      0.998      0.999      0.999       1.00       1.00       1.00       1.00       1.00       1.00    

                     CUMMULATIVE MASS BUDGETS AT END OF TRANSPORT STEP  133, TIME STEP    1, STRESS PERIOD    2
                     ------------------------------------------------------------------------------------------

                                                             IN                           OUT
                                                      ----------------             ----------------
                               CONSTANT CONCENTRATION:    0.000000                    0.000000    
                                        CONSTANT HEAD:    0.000000                    0.000000    
                                                WELLS:    0.000000                    0.000000    
                              HEAD-DEPENDENT BOUNDARY:    1.309059                  -0.5683043    
                                MASS STORAGE (SOLUTE):   0.4080676E-01              -0.7815615    
                            ---------------------------------------------------------------------------
                                              [TOTAL]:    1.349866       KG          -1.349866       KG

                                                          NET (IN - OUT):  -0.3384631E-08
                                                   DISCREPANCY (PERCENT):  -0.2507383E-06

 HEAD WILL BE SAVED ON UNIT   51 AT END OF TIME STEP   1, STRESS PERIOD    2
1
  MASS BUDGET FOR ENTIRE MODEL AT END OF TIME STEP  1 IN STRESS PERIOD   2
  ------------------------------------------------------------------------------

     CUMULATIVE MASS      M       RATES FOR THIS TIME STEP      M/T
     ------------------                 ------------------------

           IN:                                      IN:
           ---                                      ---
             STORAGE =       1.6195E-02               STORAGE =          68.9544
       CONSTANT HEAD =           0.0000         CONSTANT HEAD =           0.0000
               WELLS =        4500.0000                 WELLS =           0.0000
     HEAD DEP BOUNDS =        1341.1310       HEAD DEP BOUNDS =        1541.6533
                DCDT =           0.9998                  DCDT =           0.0000

            TOTAL IN =        5842.1470              TOTAL IN =        1610.6077

          OUT:                                     OUT:
          ----                                     ----
             STORAGE =       7.6335E-05               STORAGE =          69.0180
       CONSTANT HEAD =           0.0000         CONSTANT HEAD =           0.0000
               WELLS =           0.0000                 WELLS =           0.0000
     HEAD DEP BOUNDS =        5823.0700       HEAD DEP BOUNDS =        1513.3336
                DCDT =          19.0775                  DCDT =          28.2555

           TOTAL OUT =        5842.1475             TOTAL OUT =        1610.6071

            IN - OUT =      -5.5024E-04              IN - OUT =       5.3287E-04

 PERCENT DISCREPANCY =           0.00     PERCENT DISCREPANCY =           0.00



0


          TIME SUMMARY AT END OF TRANSPORT STEP  133 IN TIME STEP    1 IN STRESS PERIOD   2
                    SECONDS     MINUTES      HOURS       DAYS        YEARS
                    -----------------------------------------------------------
  TRANS STEP LENGTH 6.13909E-10 1.02318E-11 1.70530E-13 7.10543E-15 1.94536E-17
   TIME STEP LENGTH  28512.      475.20      7.9200     0.33000     9.03491E-04
 STRESS PERIOD TIME  28512.      475.20      7.9200     0.33000     9.03491E-04
         TOTAL TIME 1.14912E+05  1915.2      31.920      1.3300     3.64134E-03
1
