                                  MODFLOW-NWT-SWR1 
      U.S. GEOLOGICAL SURVEY MODULAR FINITE-DIFFERENCE GROUNDWATER-FLOW MODEL
                            VERSION 1.1.3, 8/01/2017
                    BASED ON MODFLOW-2005 VERSION 1.11.00 08/08/2013

 LIST FILE: pp_model.list
                         UNIT    2

 OPENING pp_model.dis
 FILE TYPE:DIS   UNIT   11   STATUS:OLD    
 FORMAT:FORMATTED              ACCESS:SEQUENTIAL          

 OPENING pp_model.bas
 FILE TYPE:BAS6   UNIT   13   STATUS:OLD    
 FORMAT:FORMATTED              ACCESS:SEQUENTIAL          

 OPENING pp_model.upw
 FILE TYPE:UPW   UNIT   31   STATUS:OLD    
 FORMAT:FORMATTED              ACCESS:SEQUENTIAL          

 OPENING pp_model.oc
 FILE TYPE:OC   UNIT   14   STATUS:OLD    
 FORMAT:FORMATTED              ACCESS:SEQUENTIAL          

 OPENING pp_model.wel
 FILE TYPE:WEL   UNIT   20   STATUS:OLD    
 FORMAT:FORMATTED              ACCESS:SEQUENTIAL          

 OPENING pp_model.ghb
 FILE TYPE:GHB   UNIT   23   STATUS:OLD    
 FORMAT:FORMATTED              ACCESS:SEQUENTIAL          

 OPENING pp_model.nwt
 FILE TYPE:NWT   UNIT   32   STATUS:OLD    
 FORMAT:FORMATTED              ACCESS:SEQUENTIAL          

 OPENING pp_model.hob
 FILE TYPE:HOB   UNIT   39   STATUS:OLD    
 FORMAT:FORMATTED              ACCESS:SEQUENTIAL          

 OPENING pp_model.cbc
 FILE TYPE:DATA(BINARY)   UNIT   55   STATUS:REPLACE
 FORMAT:BINARY                 ACCESS:SEQUENTIAL          

 OPENING pp_model.hds
 FILE TYPE:DATA(BINARY)   UNIT   51   STATUS:REPLACE
 FORMAT:BINARY                 ACCESS:SEQUENTIAL          

 OPENING pp_model.hob.out
 FILE TYPE:DATA   UNIT   52   STATUS:UNKNOWN
 FORMAT:FORMATTED              ACCESS:SEQUENTIAL          

 BAS -- BASIC PACKAGE, VERSION 1.1.3, 8/01/2017 INPUT READ FROM UNIT   13
 
 MODFLOW was compiled using mixed precision
 Precision of REAL variables:           6
 Precision of DOUBLE PRECISION variables:          15

 DISCRETIZATION INPUT DATA READ FROM UNIT   11
 # DIS package for  MODFLOW-NWT, generated by Flopy.
    1 LAYERS        50 ROWS        50 COLUMNS
    2 STRESS PERIOD(S) IN SIMULATION
 MODEL TIME UNIT IS DAYS
 MODEL LENGTH UNIT IS METERS
  Confining bed flag for each layer:
   0

                     DELR =   20.0000    

                     DELC =   20.0000    



           TOP ELEVATION OF LAYER 1
 READING ON UNIT   11 WITH FORMAT: (50E15.6)           



             MODEL LAYER BOTTOM EL. FOR LAYER   1
 READING ON UNIT   11 WITH FORMAT: (50E15.6)           


 STRESS PERIOD     LENGTH       TIME STEPS     MULTIPLIER FOR DELT    SS FLAG
 ----------------------------------------------------------------------------
        1         1.000000          1                    1.000         SS
        2         10.00000         10                    1.000         TR

 COMBINED STEADY-STATE AND TRANSIENT SIMULATION



 
 # BAS6 package for  MODFLOW-NWT, generated by Flopy.                            
 THE FREE FORMAT OPTION HAS BEEN SELECTED



                     BOUNDARY ARRAY FOR LAYER   1
 READING ON UNIT   13 WITH FORMAT: (FREE)              

 AQUIFER HEAD WILL BE SET TO  -999.99     AT ALL NO-FLOW NODES (IBOUND=0).



                       INITIAL HEAD FOR LAYER   1
 READING ON UNIT   13 WITH FORMAT: (50E15.6)           
 # OC package for  MODFLOW-NWT, generated by Flopy.

 OUTPUT CONTROL IS SPECIFIED ONLY AT TIME STEPS FOR WHICH OUTPUT IS DESIRED
 COMPACT CELL-BY-CELL BUDGET FILES WILL BE WRITTEN
 AUXILIARY DATA WILL BE SAVED IN CELL-BY-CELL BUDGET FILES
 HEAD PRINT FORMAT CODE IS   0    DRAWDOWN PRINT FORMAT CODE IS   0
 HEADS WILL BE SAVED ON UNIT   51    DRAWDOWNS WILL BE SAVED ON UNIT    0
 # NWT package for  MODFLOW-NWT, generated by Flopy.

 NWT1 -- Newton Solver, VERSION 1.1.3, 8/01/2017
         INPUT READ FROM UNIT 32

 SPECIFIED OPTION:
 SOLVER INPUT VALUES ARE SPECIFIED BY USER
 ***XMD linear solver will be used***
 
   CONVERGENCE CRITERION OF   0.500000E-01 FOR HEAD SOLUTION
   AND A TOLERANCE OF   0.200000E+02 FOR FLOW SOLUTION AND 
   A MAXIMUM OF  1000 OUTER ITERATIONS. 


   D-B-D REDUCTION FACTOR OF    0.970000E+00 AND 
   A D-B-D INCREASE FACTOR OF    0.100000E-03 AND 
   A D-B-D RELAXATION OF    0.000000E+00 AND 
   A MOMENTUM FACTOR OF    0.100000E+00 .


 ***BACKTRACKING IS INACTIVE***
 XMD -- LINEAR SOLUTION BY XMD PACKAGE VERSION 1.30
     BY MOTOMU IBARAKI, OHIO STATE UNIVERSITY, COLOMBUS, OH
                 INPUT READ FROM UNIT 32
 ACCELERATION METHOD                    (IACL) =         1
 NODE ORDERING FLAG                   (NORDER) =         0
 LEVEL OF FILL                         (LEVEL) =         3
 MAXIMUM NUMBER OF ORTHOGONALIZATIONS  (NORTH) =         7
 INDEX FOR USING REDUCED SYSTEM      (IREDSYS) =         0
 RESID. REDUCTION CONVERGE CRITERION  (RRCTOL) =  0.000000E+00
 INDEX FOR USING DROP TOLERANCE     (IDROPTOL) =         1
 DROP TOLERANCE VALUE                  (EPSRN) =  0.500000E-02
 CONVERGENCE CRITERIA OF           (HCLOSEXMD) =  0.100000E-02
 MAX. NUMBER OF LINEAR ITERATIONS  (MXITERXMD) =       200


 UPW1 -- UPSTREAM WEIGHTING FLOW PACKAGE, VERSION 1.1.3, 8/01/2017
         INPUT READ FROM UNIT 31

 # UPW package for  MODFLOW-NWT, generated by Flopy.
 CELL-BY-CELL FLOWS WILL BE SAVED ON UNIT   55
 No named parameters

   LAYER FLAGS:
 LAYER       LAYTYP          LAYAVG    CHANI           LAYVKA           LAYWET
 ---------------------------------------------------------------------------
    1             1             0     1.000E+00             0             0

   INTERPRETATION OF LAYER FLAGS:
                        INTERBLOCK     HORIZONTAL    DATA IN
         LAYER TYPE   TRANSMISSIVITY   ANISOTROPY   ARRAY VKA   WETTABILITY
 LAYER   (LAYTYP)        (LAYAVG)      (CHANI)     (LAYVKA)       (LAYWET)
 ---------------------------------------------------------------------------
    1   CONVERTIBLE      HARMONIC     1.000E+00    VERTICAL K  NON-WETTABLE



              HYD. COND. ALONG ROWS FOR LAYER   1
 READING ON UNIT   31 WITH FORMAT: (50E15.6)           



                VERTICAL HYD. COND. FOR LAYER   1
 READING ON UNIT   31 WITH FORMAT: (50E15.6)           

         SPECIFIC STORAGE =  1.000000E-06 FOR LAYER   1

           SPECIFIC YIELD =  0.180000     FOR LAYER   1

 WEL -- WELL PACKAGE FOR NWT VERSION 1.1.3,  8/01/2017 INPUT READ FROM UNIT   20
 # WEL package for  MODFLOW-NWT, generated by Flopy.
 No named parameters
 MAXIMUM OF      1 ACTIVE WELLS AT ONE TIME
 No named parameters
  PHIRAMP WILL BE SET TO A DEFAULT VALUE OF 1.0E-5
  WELLS WITH REDUCED PUMPING WILL BE REPORTED TO THE MAIN LISTING FILE


     0 Well parameters

 GHB -- GENERAL-HEAD BOUNDARY PACKAGE, VERSION 7, 5/2/2005
         INPUT READ FROM UNIT   23
 # GHB package for  MODFLOW-NWT, generated by Flopy.
 No named parameters
 MAXIMUM OF    100 ACTIVE GHB CELLS AT ONE TIME


     0 GHB parameters

 OBS2BAS7 -- HEAD OBSERVATIONS, VERSION 2.0, 2/28/2006
 INPUT READ FROM UNIT  39
 # HOB package for  MODFLOW-NWT, generated by Flopy.

 NUMBER OF HEADS....................................:  490
   NUMBER OF MULTILAYER HEADS.......................:    0
   MAXIMUM NUMBER OF LAYERS FOR MULTILAYER HEADS....:    0
 HEAD OBSERVATIONS WILL BE SAVED ON UNIT............:   52
 SIMULATED EQUIVALENT HEAD AT DRY CELLS WILL BE:   -9999.00    

 OBSERVED HEAD DATA -- TIME OFFSETS ARE MULTIPLIED BY:   1.0000    

                    REFER.
       OBSERVATION  STRESS    TIME
  OBS#    NAME      PERIOD   OFFSET    OBSERVATION
     1 HO_0           -10    0.000       0.000    
  TRANSIENT DATA AT THIS LOCATION, ITT =   1
     1 HO_0.1           1    0.000       0.000    
 Observation within a steady-state time step has been moved to the end of the time step.
     2 HO_0.2           2    0.000       0.000    
     3 HO_0.3           2    1.000       0.000    
     4 HO_0.4           2    2.000       0.000    
     5 HO_0.5           2    3.000       0.000    
     6 HO_0.6           2    4.000       0.000    
     7 HO_0.7           2    5.000       0.000    
     8 HO_0.8           2    6.000       0.000    
     9 HO_0.9           2    7.000       0.000    
    10 HO_0.10          2    8.000       0.000    
 
    11 HO_1           -10    0.000       0.000    
  TRANSIENT DATA AT THIS LOCATION, ITT =   1
    11 HO_1.1           1    0.000       0.000    
 Observation within a steady-state time step has been moved to the end of the time step.
    12 HO_1.2           2    0.000       0.000    
    13 HO_1.3           2    1.000       0.000    
    14 HO_1.4           2    2.000       0.000    
    15 HO_1.5           2    3.000       0.000    
    16 HO_1.6           2    4.000       0.000    
    17 HO_1.7           2    5.000       0.000    
    18 HO_1.8           2    6.000       0.000    
    19 HO_1.9           2    7.000       0.000    
    20 HO_1.10          2    8.000       0.000    
 
    21 HO_2           -10    0.000       0.000    
  TRANSIENT DATA AT THIS LOCATION, ITT =   1
    21 HO_2.1           1    0.000       0.000    
 Observation within a steady-state time step has been moved to the end of the time step.
    22 HO_2.2           2    0.000       0.000    
    23 HO_2.3           2    1.000       0.000    
    24 HO_2.4           2    2.000       0.000    
    25 HO_2.5           2    3.000       0.000    
    26 HO_2.6           2    4.000       0.000    
    27 HO_2.7           2    5.000       0.000    
    28 HO_2.8           2    6.000       0.000    
    29 HO_2.9           2    7.000       0.000    
    30 HO_2.10          2    8.000       0.000    
 
    31 HO_3           -10    0.000       0.000    
  TRANSIENT DATA AT THIS LOCATION, ITT =   1
    31 HO_3.1           1    0.000       0.000    
 Observation within a steady-state time step has been moved to the end of the time step.
    32 HO_3.2           2    0.000       0.000    
    33 HO_3.3           2    1.000       0.000    
    34 HO_3.4           2    2.000       0.000    
    35 HO_3.5           2    3.000       0.000    
    36 HO_3.6           2    4.000       0.000    
    37 HO_3.7           2    5.000       0.000    
    38 HO_3.8           2    6.000       0.000    
    39 HO_3.9           2    7.000       0.000    
    40 HO_3.10          2    8.000       0.000    
 
    41 HO_4           -10    0.000       0.000    
  TRANSIENT DATA AT THIS LOCATION, ITT =   1
    41 HO_4.1           1    0.000       0.000    
 Observation within a steady-state time step has been moved to the end of the time step.
    42 HO_4.2           2    0.000       0.000    
    43 HO_4.3           2    1.000       0.000    
    44 HO_4.4           2    2.000       0.000    
    45 HO_4.5           2    3.000       0.000    
    46 HO_4.6           2    4.000       0.000    
    47 HO_4.7           2    5.000       0.000    
    48 HO_4.8           2    6.000       0.000    
    49 HO_4.9           2    7.000       0.000    
    50 HO_4.10          2    8.000       0.000    
 
    51 HO_5           -10    0.000       0.000    
  TRANSIENT DATA AT THIS LOCATION, ITT =   1
    51 HO_5.1           1    0.000       0.000    
 Observation within a steady-state time step has been moved to the end of the time step.
    52 HO_5.2           2    0.000       0.000    
    53 HO_5.3           2    1.000       0.000    
    54 HO_5.4           2    2.000       0.000    
    55 HO_5.5           2    3.000       0.000    
    56 HO_5.6           2    4.000       0.000    
    57 HO_5.7           2    5.000       0.000    
    58 HO_5.8           2    6.000       0.000    
    59 HO_5.9           2    7.000       0.000    
    60 HO_5.10          2    8.000       0.000    
 
    61 HO_6           -10    0.000       0.000    
  TRANSIENT DATA AT THIS LOCATION, ITT =   1
    61 HO_6.1           1    0.000       0.000    
 Observation within a steady-state time step has been moved to the end of the time step.
    62 HO_6.2           2    0.000       0.000    
    63 HO_6.3           2    1.000       0.000    
    64 HO_6.4           2    2.000       0.000    
    65 HO_6.5           2    3.000       0.000    
    66 HO_6.6           2    4.000       0.000    
    67 HO_6.7           2    5.000       0.000    
    68 HO_6.8           2    6.000       0.000    
    69 HO_6.9           2    7.000       0.000    
    70 HO_6.10          2    8.000       0.000    
 
    71 HO_7           -10    0.000       0.000    
  TRANSIENT DATA AT THIS LOCATION, ITT =   1
    71 HO_7.1           1    0.000       0.000    
 Observation within a steady-state time step has been moved to the end of the time step.
    72 HO_7.2           2    0.000       0.000    
    73 HO_7.3           2    1.000       0.000    
    74 HO_7.4           2    2.000       0.000    
    75 HO_7.5           2    3.000       0.000    
    76 HO_7.6           2    4.000       0.000    
    77 HO_7.7           2    5.000       0.000    
    78 HO_7.8           2    6.000       0.000    
    79 HO_7.9           2    7.000       0.000    
    80 HO_7.10          2    8.000       0.000    
 
    81 HO_8           -10    0.000       0.000    
  TRANSIENT DATA AT THIS LOCATION, ITT =   1
    81 HO_8.1           1    0.000       0.000    
 Observation within a steady-state time step has been moved to the end of the time step.
    82 HO_8.2           2    0.000       0.000    
    83 HO_8.3           2    1.000       0.000    
    84 HO_8.4           2    2.000       0.000    
    85 HO_8.5           2    3.000       0.000    
    86 HO_8.6           2    4.000       0.000    
    87 HO_8.7           2    5.000       0.000    
    88 HO_8.8           2    6.000       0.000    
    89 HO_8.9           2    7.000       0.000    
    90 HO_8.10          2    8.000       0.000    
 
    91 HO_9           -10    0.000       0.000    
  TRANSIENT DATA AT THIS LOCATION, ITT =   1
    91 HO_9.1           1    0.000       0.000    
 Observation within a steady-state time step has been moved to the end of the time step.
    92 HO_9.2           2    0.000       0.000    
    93 HO_9.3           2    1.000       0.000    
    94 HO_9.4           2    2.000       0.000    
    95 HO_9.5           2    3.000       0.000    
    96 HO_9.6           2    4.000       0.000    
    97 HO_9.7           2    5.000       0.000    
    98 HO_9.8           2    6.000       0.000    
    99 HO_9.9           2    7.000       0.000    
   100 HO_9.10          2    8.000       0.000    
 
   101 HO_10          -10    0.000       0.000    
  TRANSIENT DATA AT THIS LOCATION, ITT =   1
   101 HO_10.1          1    0.000       0.000    
 Observation within a steady-state time step has been moved to the end of the time step.
   102 HO_10.2          2    0.000       0.000    
   103 HO_10.3          2    1.000       0.000    
   104 HO_10.4          2    2.000       0.000    
   105 HO_10.5          2    3.000       0.000    
   106 HO_10.6          2    4.000       0.000    
   107 HO_10.7          2    5.000       0.000    
   108 HO_10.8          2    6.000       0.000    
   109 HO_10.9          2    7.000       0.000    
   110 HO_10.10         2    8.000       0.000    
 
   111 HO_11          -10    0.000       0.000    
  TRANSIENT DATA AT THIS LOCATION, ITT =   1
   111 HO_11.1          1    0.000       0.000    
 Observation within a steady-state time step has been moved to the end of the time step.
   112 HO_11.2          2    0.000       0.000    
   113 HO_11.3          2    1.000       0.000    
   114 HO_11.4          2    2.000       0.000    
   115 HO_11.5          2    3.000       0.000    
   116 HO_11.6          2    4.000       0.000    
   117 HO_11.7          2    5.000       0.000    
   118 HO_11.8          2    6.000       0.000    
   119 HO_11.9          2    7.000       0.000    
   120 HO_11.10         2    8.000       0.000    
 
   121 HO_12          -10    0.000       0.000    
  TRANSIENT DATA AT THIS LOCATION, ITT =   1
   121 HO_12.1          1    0.000       0.000    
 Observation within a steady-state time step has been moved to the end of the time step.
   122 HO_12.2          2    0.000       0.000    
   123 HO_12.3          2    1.000       0.000    
   124 HO_12.4          2    2.000       0.000    
   125 HO_12.5          2    3.000       0.000    
   126 HO_12.6          2    4.000       0.000    
   127 HO_12.7          2    5.000       0.000    
   128 HO_12.8          2    6.000       0.000    
   129 HO_12.9          2    7.000       0.000    
   130 HO_12.10         2    8.000       0.000    
 
   131 HO_13          -10    0.000       0.000    
  TRANSIENT DATA AT THIS LOCATION, ITT =   1
   131 HO_13.1          1    0.000       0.000    
 Observation within a steady-state time step has been moved to the end of the time step.
   132 HO_13.2          2    0.000       0.000    
   133 HO_13.3          2    1.000       0.000    
   134 HO_13.4          2    2.000       0.000    
   135 HO_13.5          2    3.000       0.000    
   136 HO_13.6          2    4.000       0.000    
   137 HO_13.7          2    5.000       0.000    
   138 HO_13.8          2    6.000       0.000    
   139 HO_13.9          2    7.000       0.000    
   140 HO_13.10         2    8.000       0.000    
 
   141 HO_14          -10    0.000       0.000    
  TRANSIENT DATA AT THIS LOCATION, ITT =   1
   141 HO_14.1          1    0.000       0.000    
 Observation within a steady-state time step has been moved to the end of the time step.
   142 HO_14.2          2    0.000       0.000    
   143 HO_14.3          2    1.000       0.000    
   144 HO_14.4          2    2.000       0.000    
   145 HO_14.5          2    3.000       0.000    
   146 HO_14.6          2    4.000       0.000    
   147 HO_14.7          2    5.000       0.000    
   148 HO_14.8          2    6.000       0.000    
   149 HO_14.9          2    7.000       0.000    
   150 HO_14.10         2    8.000       0.000    
 
   151 HO_15          -10    0.000       0.000    
  TRANSIENT DATA AT THIS LOCATION, ITT =   1
   151 HO_15.1          1    0.000       0.000    
 Observation within a steady-state time step has been moved to the end of the time step.
   152 HO_15.2          2    0.000       0.000    
   153 HO_15.3          2    1.000       0.000    
   154 HO_15.4          2    2.000       0.000    
   155 HO_15.5          2    3.000       0.000    
   156 HO_15.6          2    4.000       0.000    
   157 HO_15.7          2    5.000       0.000    
   158 HO_15.8          2    6.000       0.000    
   159 HO_15.9          2    7.000       0.000    
   160 HO_15.10         2    8.000       0.000    
 
   161 HO_16          -10    0.000       0.000    
  TRANSIENT DATA AT THIS LOCATION, ITT =   1
   161 HO_16.1          1    0.000       0.000    
 Observation within a steady-state time step has been moved to the end of the time step.
   162 HO_16.2          2    0.000       0.000    
   163 HO_16.3          2    1.000       0.000    
   164 HO_16.4          2    2.000       0.000    
   165 HO_16.5          2    3.000       0.000    
   166 HO_16.6          2    4.000       0.000    
   167 HO_16.7          2    5.000       0.000    
   168 HO_16.8          2    6.000       0.000    
   169 HO_16.9          2    7.000       0.000    
   170 HO_16.10         2    8.000       0.000    
 
   171 HO_17          -10    0.000       0.000    
  TRANSIENT DATA AT THIS LOCATION, ITT =   1
   171 HO_17.1          1    0.000       0.000    
 Observation within a steady-state time step has been moved to the end of the time step.
   172 HO_17.2          2    0.000       0.000    
   173 HO_17.3          2    1.000       0.000    
   174 HO_17.4          2    2.000       0.000    
   175 HO_17.5          2    3.000       0.000    
   176 HO_17.6          2    4.000       0.000    
   177 HO_17.7          2    5.000       0.000    
   178 HO_17.8          2    6.000       0.000    
   179 HO_17.9          2    7.000       0.000    
   180 HO_17.10         2    8.000       0.000    
 
   181 HO_18          -10    0.000       0.000    
  TRANSIENT DATA AT THIS LOCATION, ITT =   1
   181 HO_18.1          1    0.000       0.000    
 Observation within a steady-state time step has been moved to the end of the time step.
   182 HO_18.2          2    0.000       0.000    
   183 HO_18.3          2    1.000       0.000    
   184 HO_18.4          2    2.000       0.000    
   185 HO_18.5          2    3.000       0.000    
   186 HO_18.6          2    4.000       0.000    
   187 HO_18.7          2    5.000       0.000    
   188 HO_18.8          2    6.000       0.000    
   189 HO_18.9          2    7.000       0.000    
   190 HO_18.10         2    8.000       0.000    
 
   191 HO_19          -10    0.000       0.000    
  TRANSIENT DATA AT THIS LOCATION, ITT =   1
   191 HO_19.1          1    0.000       0.000    
 Observation within a steady-state time step has been moved to the end of the time step.
   192 HO_19.2          2    0.000       0.000    
   193 HO_19.3          2    1.000       0.000    
   194 HO_19.4          2    2.000       0.000    
   195 HO_19.5          2    3.000       0.000    
   196 HO_19.6          2    4.000       0.000    
   197 HO_19.7          2    5.000       0.000    
   198 HO_19.8          2    6.000       0.000    
   199 HO_19.9          2    7.000       0.000    
   200 HO_19.10         2    8.000       0.000    
 
   201 HO_20          -10    0.000       0.000    
  TRANSIENT DATA AT THIS LOCATION, ITT =   1
   201 HO_20.1          1    0.000       0.000    
 Observation within a steady-state time step has been moved to the end of the time step.
   202 HO_20.2          2    0.000       0.000    
   203 HO_20.3          2    1.000       0.000    
   204 HO_20.4          2    2.000       0.000    
   205 HO_20.5          2    3.000       0.000    
   206 HO_20.6          2    4.000       0.000    
   207 HO_20.7          2    5.000       0.000    
   208 HO_20.8          2    6.000       0.000    
   209 HO_20.9          2    7.000       0.000    
   210 HO_20.10         2    8.000       0.000    
 
   211 HO_21          -10    0.000       0.000    
  TRANSIENT DATA AT THIS LOCATION, ITT =   1
   211 HO_21.1          1    0.000       0.000    
 Observation within a steady-state time step has been moved to the end of the time step.
   212 HO_21.2          2    0.000       0.000    
   213 HO_21.3          2    1.000       0.000    
   214 HO_21.4          2    2.000       0.000    
   215 HO_21.5          2    3.000       0.000    
   216 HO_21.6          2    4.000       0.000    
   217 HO_21.7          2    5.000       0.000    
   218 HO_21.8          2    6.000       0.000    
   219 HO_21.9          2    7.000       0.000    
   220 HO_21.10         2    8.000       0.000    
 
   221 HO_22          -10    0.000       0.000    
  TRANSIENT DATA AT THIS LOCATION, ITT =   1
   221 HO_22.1          1    0.000       0.000    
 Observation within a steady-state time step has been moved to the end of the time step.
   222 HO_22.2          2    0.000       0.000    
   223 HO_22.3          2    1.000       0.000    
   224 HO_22.4          2    2.000       0.000    
   225 HO_22.5          2    3.000       0.000    
   226 HO_22.6          2    4.000       0.000    
   227 HO_22.7          2    5.000       0.000    
   228 HO_22.8          2    6.000       0.000    
   229 HO_22.9          2    7.000       0.000    
   230 HO_22.10         2    8.000       0.000    
 
   231 HO_23          -10    0.000       0.000    
  TRANSIENT DATA AT THIS LOCATION, ITT =   1
   231 HO_23.1          1    0.000       0.000    
 Observation within a steady-state time step has been moved to the end of the time step.
   232 HO_23.2          2    0.000       0.000    
   233 HO_23.3          2    1.000       0.000    
   234 HO_23.4          2    2.000       0.000    
   235 HO_23.5          2    3.000       0.000    
   236 HO_23.6          2    4.000       0.000    
   237 HO_23.7          2    5.000       0.000    
   238 HO_23.8          2    6.000       0.000    
   239 HO_23.9          2    7.000       0.000    
   240 HO_23.10         2    8.000       0.000    
 
   241 HO_24          -10    0.000       0.000    
  TRANSIENT DATA AT THIS LOCATION, ITT =   1
   241 HO_24.1          1    0.000       0.000    
 Observation within a steady-state time step has been moved to the end of the time step.
   242 HO_24.2          2    0.000       0.000    
   243 HO_24.3          2    1.000       0.000    
   244 HO_24.4          2    2.000       0.000    
   245 HO_24.5          2    3.000       0.000    
   246 HO_24.6          2    4.000       0.000    
   247 HO_24.7          2    5.000       0.000    
   248 HO_24.8          2    6.000       0.000    
   249 HO_24.9          2    7.000       0.000    
   250 HO_24.10         2    8.000       0.000    
 
   251 HO_25          -10    0.000       0.000    
  TRANSIENT DATA AT THIS LOCATION, ITT =   1
   251 HO_25.1          1    0.000       0.000    
 Observation within a steady-state time step has been moved to the end of the time step.
   252 HO_25.2          2    0.000       0.000    
   253 HO_25.3          2    1.000       0.000    
   254 HO_25.4          2    2.000       0.000    
   255 HO_25.5          2    3.000       0.000    
   256 HO_25.6          2    4.000       0.000    
   257 HO_25.7          2    5.000       0.000    
   258 HO_25.8          2    6.000       0.000    
   259 HO_25.9          2    7.000       0.000    
   260 HO_25.10         2    8.000       0.000    
 
   261 HO_26          -10    0.000       0.000    
  TRANSIENT DATA AT THIS LOCATION, ITT =   1
   261 HO_26.1          1    0.000       0.000    
 Observation within a steady-state time step has been moved to the end of the time step.
   262 HO_26.2          2    0.000       0.000    
   263 HO_26.3          2    1.000       0.000    
   264 HO_26.4          2    2.000       0.000    
   265 HO_26.5          2    3.000       0.000    
   266 HO_26.6          2    4.000       0.000    
   267 HO_26.7          2    5.000       0.000    
   268 HO_26.8          2    6.000       0.000    
   269 HO_26.9          2    7.000       0.000    
   270 HO_26.10         2    8.000       0.000    
 
   271 HO_27          -10    0.000       0.000    
  TRANSIENT DATA AT THIS LOCATION, ITT =   1
   271 HO_27.1          1    0.000       0.000    
 Observation within a steady-state time step has been moved to the end of the time step.
   272 HO_27.2          2    0.000       0.000    
   273 HO_27.3          2    1.000       0.000    
   274 HO_27.4          2    2.000       0.000    
   275 HO_27.5          2    3.000       0.000    
   276 HO_27.6          2    4.000       0.000    
   277 HO_27.7          2    5.000       0.000    
   278 HO_27.8          2    6.000       0.000    
   279 HO_27.9          2    7.000       0.000    
   280 HO_27.10         2    8.000       0.000    
 
   281 HO_28          -10    0.000       0.000    
  TRANSIENT DATA AT THIS LOCATION, ITT =   1
   281 HO_28.1          1    0.000       0.000    
 Observation within a steady-state time step has been moved to the end of the time step.
   282 HO_28.2          2    0.000       0.000    
   283 HO_28.3          2    1.000       0.000    
   284 HO_28.4          2    2.000       0.000    
   285 HO_28.5          2    3.000       0.000    
   286 HO_28.6          2    4.000       0.000    
   287 HO_28.7          2    5.000       0.000    
   288 HO_28.8          2    6.000       0.000    
   289 HO_28.9          2    7.000       0.000    
   290 HO_28.10         2    8.000       0.000    
 
   291 HO_29          -10    0.000       0.000    
  TRANSIENT DATA AT THIS LOCATION, ITT =   1
   291 HO_29.1          1    0.000       0.000    
 Observation within a steady-state time step has been moved to the end of the time step.
   292 HO_29.2          2    0.000       0.000    
   293 HO_29.3          2    1.000       0.000    
   294 HO_29.4          2    2.000       0.000    
   295 HO_29.5          2    3.000       0.000    
   296 HO_29.6          2    4.000       0.000    
   297 HO_29.7          2    5.000       0.000    
   298 HO_29.8          2    6.000       0.000    
   299 HO_29.9          2    7.000       0.000    
   300 HO_29.10         2    8.000       0.000    
 
   301 HO_30          -10    0.000       0.000    
  TRANSIENT DATA AT THIS LOCATION, ITT =   1
   301 HO_30.1          1    0.000       0.000    
 Observation within a steady-state time step has been moved to the end of the time step.
   302 HO_30.2          2    0.000       0.000    
   303 HO_30.3          2    1.000       0.000    
   304 HO_30.4          2    2.000       0.000    
   305 HO_30.5          2    3.000       0.000    
   306 HO_30.6          2    4.000       0.000    
   307 HO_30.7          2    5.000       0.000    
   308 HO_30.8          2    6.000       0.000    
   309 HO_30.9          2    7.000       0.000    
   310 HO_30.10         2    8.000       0.000    
 
   311 HO_31          -10    0.000       0.000    
  TRANSIENT DATA AT THIS LOCATION, ITT =   1
   311 HO_31.1          1    0.000       0.000    
 Observation within a steady-state time step has been moved to the end of the time step.
   312 HO_31.2          2    0.000       0.000    
   313 HO_31.3          2    1.000       0.000    
   314 HO_31.4          2    2.000       0.000    
   315 HO_31.5          2    3.000       0.000    
   316 HO_31.6          2    4.000       0.000    
   317 HO_31.7          2    5.000       0.000    
   318 HO_31.8          2    6.000       0.000    
   319 HO_31.9          2    7.000       0.000    
   320 HO_31.10         2    8.000       0.000    
 
   321 HO_32          -10    0.000       0.000    
  TRANSIENT DATA AT THIS LOCATION, ITT =   1
   321 HO_32.1          1    0.000       0.000    
 Observation within a steady-state time step has been moved to the end of the time step.
   322 HO_32.2          2    0.000       0.000    
   323 HO_32.3          2    1.000       0.000    
   324 HO_32.4          2    2.000       0.000    
   325 HO_32.5          2    3.000       0.000    
   326 HO_32.6          2    4.000       0.000    
   327 HO_32.7          2    5.000       0.000    
   328 HO_32.8          2    6.000       0.000    
   329 HO_32.9          2    7.000       0.000    
   330 HO_32.10         2    8.000       0.000    
 
   331 HO_33          -10    0.000       0.000    
  TRANSIENT DATA AT THIS LOCATION, ITT =   1
   331 HO_33.1          1    0.000       0.000    
 Observation within a steady-state time step has been moved to the end of the time step.
   332 HO_33.2          2    0.000       0.000    
   333 HO_33.3          2    1.000       0.000    
   334 HO_33.4          2    2.000       0.000    
   335 HO_33.5          2    3.000       0.000    
   336 HO_33.6          2    4.000       0.000    
   337 HO_33.7          2    5.000       0.000    
   338 HO_33.8          2    6.000       0.000    
   339 HO_33.9          2    7.000       0.000    
   340 HO_33.10         2    8.000       0.000    
 
   341 HO_34          -10    0.000       0.000    
  TRANSIENT DATA AT THIS LOCATION, ITT =   1
   341 HO_34.1          1    0.000       0.000    
 Observation within a steady-state time step has been moved to the end of the time step.
   342 HO_34.2          2    0.000       0.000    
   343 HO_34.3          2    1.000       0.000    
   344 HO_34.4          2    2.000       0.000    
   345 HO_34.5          2    3.000       0.000    
   346 HO_34.6          2    4.000       0.000    
   347 HO_34.7          2    5.000       0.000    
   348 HO_34.8          2    6.000       0.000    
   349 HO_34.9          2    7.000       0.000    
   350 HO_34.10         2    8.000       0.000    
 
   351 HO_35          -10    0.000       0.000    
  TRANSIENT DATA AT THIS LOCATION, ITT =   1
   351 HO_35.1          1    0.000       0.000    
 Observation within a steady-state time step has been moved to the end of the time step.
   352 HO_35.2          2    0.000       0.000    
   353 HO_35.3          2    1.000       0.000    
   354 HO_35.4          2    2.000       0.000    
   355 HO_35.5          2    3.000       0.000    
   356 HO_35.6          2    4.000       0.000    
   357 HO_35.7          2    5.000       0.000    
   358 HO_35.8          2    6.000       0.000    
   359 HO_35.9          2    7.000       0.000    
   360 HO_35.10         2    8.000       0.000    
 
   361 HO_36          -10    0.000       0.000    
  TRANSIENT DATA AT THIS LOCATION, ITT =   1
   361 HO_36.1          1    0.000       0.000    
 Observation within a steady-state time step has been moved to the end of the time step.
   362 HO_36.2          2    0.000       0.000    
   363 HO_36.3          2    1.000       0.000    
   364 HO_36.4          2    2.000       0.000    
   365 HO_36.5          2    3.000       0.000    
   366 HO_36.6          2    4.000       0.000    
   367 HO_36.7          2    5.000       0.000    
   368 HO_36.8          2    6.000       0.000    
   369 HO_36.9          2    7.000       0.000    
   370 HO_36.10         2    8.000       0.000    
 
   371 HO_37          -10    0.000       0.000    
  TRANSIENT DATA AT THIS LOCATION, ITT =   1
   371 HO_37.1          1    0.000       0.000    
 Observation within a steady-state time step has been moved to the end of the time step.
   372 HO_37.2          2    0.000       0.000    
   373 HO_37.3          2    1.000       0.000    
   374 HO_37.4          2    2.000       0.000    
   375 HO_37.5          2    3.000       0.000    
   376 HO_37.6          2    4.000       0.000    
   377 HO_37.7          2    5.000       0.000    
   378 HO_37.8          2    6.000       0.000    
   379 HO_37.9          2    7.000       0.000    
   380 HO_37.10         2    8.000       0.000    
 
   381 HO_38          -10    0.000       0.000    
  TRANSIENT DATA AT THIS LOCATION, ITT =   1
   381 HO_38.1          1    0.000       0.000    
 Observation within a steady-state time step has been moved to the end of the time step.
   382 HO_38.2          2    0.000       0.000    
   383 HO_38.3          2    1.000       0.000    
   384 HO_38.4          2    2.000       0.000    
   385 HO_38.5          2    3.000       0.000    
   386 HO_38.6          2    4.000       0.000    
   387 HO_38.7          2    5.000       0.000    
   388 HO_38.8          2    6.000       0.000    
   389 HO_38.9          2    7.000       0.000    
   390 HO_38.10         2    8.000       0.000    
 
   391 HO_39          -10    0.000       0.000    
  TRANSIENT DATA AT THIS LOCATION, ITT =   1
   391 HO_39.1          1    0.000       0.000    
 Observation within a steady-state time step has been moved to the end of the time step.
   392 HO_39.2          2    0.000       0.000    
   393 HO_39.3          2    1.000       0.000    
   394 HO_39.4          2    2.000       0.000    
   395 HO_39.5          2    3.000       0.000    
   396 HO_39.6          2    4.000       0.000    
   397 HO_39.7          2    5.000       0.000    
   398 HO_39.8          2    6.000       0.000    
   399 HO_39.9          2    7.000       0.000    
   400 HO_39.10         2    8.000       0.000    
 
   401 HO_40          -10    0.000       0.000    
  TRANSIENT DATA AT THIS LOCATION, ITT =   1
   401 HO_40.1          1    0.000       0.000    
 Observation within a steady-state time step has been moved to the end of the time step.
   402 HO_40.2          2    0.000       0.000    
   403 HO_40.3          2    1.000       0.000    
   404 HO_40.4          2    2.000       0.000    
   405 HO_40.5          2    3.000       0.000    
   406 HO_40.6          2    4.000       0.000    
   407 HO_40.7          2    5.000       0.000    
   408 HO_40.8          2    6.000       0.000    
   409 HO_40.9          2    7.000       0.000    
   410 HO_40.10         2    8.000       0.000    
 
   411 HO_41          -10    0.000       0.000    
  TRANSIENT DATA AT THIS LOCATION, ITT =   1
   411 HO_41.1          1    0.000       0.000    
 Observation within a steady-state time step has been moved to the end of the time step.
   412 HO_41.2          2    0.000       0.000    
   413 HO_41.3          2    1.000       0.000    
   414 HO_41.4          2    2.000       0.000    
   415 HO_41.5          2    3.000       0.000    
   416 HO_41.6          2    4.000       0.000    
   417 HO_41.7          2    5.000       0.000    
   418 HO_41.8          2    6.000       0.000    
   419 HO_41.9          2    7.000       0.000    
   420 HO_41.10         2    8.000       0.000    
 
   421 HO_42          -10    0.000       0.000    
  TRANSIENT DATA AT THIS LOCATION, ITT =   1
   421 HO_42.1          1    0.000       0.000    
 Observation within a steady-state time step has been moved to the end of the time step.
   422 HO_42.2          2    0.000       0.000    
   423 HO_42.3          2    1.000       0.000    
   424 HO_42.4          2    2.000       0.000    
   425 HO_42.5          2    3.000       0.000    
   426 HO_42.6          2    4.000       0.000    
   427 HO_42.7          2    5.000       0.000    
   428 HO_42.8          2    6.000       0.000    
   429 HO_42.9          2    7.000       0.000    
   430 HO_42.10         2    8.000       0.000    
 
   431 HO_43          -10    0.000       0.000    
  TRANSIENT DATA AT THIS LOCATION, ITT =   1
   431 HO_43.1          1    0.000       0.000    
 Observation within a steady-state time step has been moved to the end of the time step.
   432 HO_43.2          2    0.000       0.000    
   433 HO_43.3          2    1.000       0.000    
   434 HO_43.4          2    2.000       0.000    
   435 HO_43.5          2    3.000       0.000    
   436 HO_43.6          2    4.000       0.000    
   437 HO_43.7          2    5.000       0.000    
   438 HO_43.8          2    6.000       0.000    
   439 HO_43.9          2    7.000       0.000    
   440 HO_43.10         2    8.000       0.000    
 
   441 HO_44          -10    0.000       0.000    
  TRANSIENT DATA AT THIS LOCATION, ITT =   1
   441 HO_44.1          1    0.000       0.000    
 Observation within a steady-state time step has been moved to the end of the time step.
   442 HO_44.2          2    0.000       0.000    
   443 HO_44.3          2    1.000       0.000    
   444 HO_44.4          2    2.000       0.000    
   445 HO_44.5          2    3.000       0.000    
   446 HO_44.6          2    4.000       0.000    
   447 HO_44.7          2    5.000       0.000    
   448 HO_44.8          2    6.000       0.000    
   449 HO_44.9          2    7.000       0.000    
   450 HO_44.10         2    8.000       0.000    
 
   451 HO_45          -10    0.000       0.000    
  TRANSIENT DATA AT THIS LOCATION, ITT =   1
   451 HO_45.1          1    0.000       0.000    
 Observation within a steady-state time step has been moved to the end of the time step.
   452 HO_45.2          2    0.000       0.000    
   453 HO_45.3          2    1.000       0.000    
   454 HO_45.4          2    2.000       0.000    
   455 HO_45.5          2    3.000       0.000    
   456 HO_45.6          2    4.000       0.000    
   457 HO_45.7          2    5.000       0.000    
   458 HO_45.8          2    6.000       0.000    
   459 HO_45.9          2    7.000       0.000    
   460 HO_45.10         2    8.000       0.000    
 
   461 HO_46          -10    0.000       0.000    
  TRANSIENT DATA AT THIS LOCATION, ITT =   1
   461 HO_46.1          1    0.000       0.000    
 Observation within a steady-state time step has been moved to the end of the time step.
   462 HO_46.2          2    0.000       0.000    
   463 HO_46.3          2    1.000       0.000    
   464 HO_46.4          2    2.000       0.000    
   465 HO_46.5          2    3.000       0.000    
   466 HO_46.6          2    4.000       0.000    
   467 HO_46.7          2    5.000       0.000    
   468 HO_46.8          2    6.000       0.000    
   469 HO_46.9          2    7.000       0.000    
   470 HO_46.10         2    8.000       0.000    
 
   471 HO_47          -10    0.000       0.000    
  TRANSIENT DATA AT THIS LOCATION, ITT =   1
   471 HO_47.1          1    0.000       0.000    
 Observation within a steady-state time step has been moved to the end of the time step.
   472 HO_47.2          2    0.000       0.000    
   473 HO_47.3          2    1.000       0.000    
   474 HO_47.4          2    2.000       0.000    
   475 HO_47.5          2    3.000       0.000    
   476 HO_47.6          2    4.000       0.000    
   477 HO_47.7          2    5.000       0.000    
   478 HO_47.8          2    6.000       0.000    
   479 HO_47.9          2    7.000       0.000    
   480 HO_47.10         2    8.000       0.000    
 
   481 HO_48          -10    0.000       0.000    
  TRANSIENT DATA AT THIS LOCATION, ITT =   1
   481 HO_48.1          1    0.000       0.000    
 Observation within a steady-state time step has been moved to the end of the time step.
   482 HO_48.2          2    0.000       0.000    
   483 HO_48.3          2    1.000       0.000    
   484 HO_48.4          2    2.000       0.000    
   485 HO_48.5          2    3.000       0.000    
   486 HO_48.6          2    4.000       0.000    
   487 HO_48.7          2    5.000       0.000    
   488 HO_48.8          2    6.000       0.000    
   489 HO_48.9          2    7.000       0.000    
   490 HO_48.10         2    8.000       0.000    
 

                                                     HEAD CHANGE
                                                      REFERENCE
        OBSERVATION                   ROW     COL    OBSERVATION
  OBS#     NAME       LAY  ROW  COL  OFFSET  OFFSET   (IF > 0)
     1  HO_0.1          1    6    6   0.000   0.000        0
     2  HO_0.2          1    6    6   0.000   0.000        0
     3  HO_0.3          1    6    6   0.000   0.000        0
     4  HO_0.4          1    6    6   0.000   0.000        0
     5  HO_0.5          1    6    6   0.000   0.000        0
     6  HO_0.6          1    6    6   0.000   0.000        0
     7  HO_0.7          1    6    6   0.000   0.000        0
     8  HO_0.8          1    6    6   0.000   0.000        0
     9  HO_0.9          1    6    6   0.000   0.000        0
    10  HO_0.10         1    6    6   0.000   0.000        0
    11  HO_1.1          1   13    6   0.000   0.000        0
    12  HO_1.2          1   13    6   0.000   0.000        0
    13  HO_1.3          1   13    6   0.000   0.000        0
    14  HO_1.4          1   13    6   0.000   0.000        0
    15  HO_1.5          1   13    6   0.000   0.000        0
    16  HO_1.6          1   13    6   0.000   0.000        0
    17  HO_1.7          1   13    6   0.000   0.000        0
    18  HO_1.8          1   13    6   0.000   0.000        0
    19  HO_1.9          1   13    6   0.000   0.000        0
    20  HO_1.10         1   13    6   0.000   0.000        0
    21  HO_2.1          1   20    6   0.000   0.000        0
    22  HO_2.2          1   20    6   0.000   0.000        0
    23  HO_2.3          1   20    6   0.000   0.000        0
    24  HO_2.4          1   20    6   0.000   0.000        0
    25  HO_2.5          1   20    6   0.000   0.000        0
    26  HO_2.6          1   20    6   0.000   0.000        0
    27  HO_2.7          1   20    6   0.000   0.000        0
    28  HO_2.8          1   20    6   0.000   0.000        0
    29  HO_2.9          1   20    6   0.000   0.000        0
    30  HO_2.10         1   20    6   0.000   0.000        0
    31  HO_3.1          1   27    6   0.000   0.000        0
    32  HO_3.2          1   27    6   0.000   0.000        0
    33  HO_3.3          1   27    6   0.000   0.000        0
    34  HO_3.4          1   27    6   0.000   0.000        0
    35  HO_3.5          1   27    6   0.000   0.000        0
    36  HO_3.6          1   27    6   0.000   0.000        0
    37  HO_3.7          1   27    6   0.000   0.000        0
    38  HO_3.8          1   27    6   0.000   0.000        0
    39  HO_3.9          1   27    6   0.000   0.000        0
    40  HO_3.10         1   27    6   0.000   0.000        0
    41  HO_4.1          1   34    6   0.000   0.000        0
    42  HO_4.2          1   34    6   0.000   0.000        0
    43  HO_4.3          1   34    6   0.000   0.000        0
    44  HO_4.4          1   34    6   0.000   0.000        0
    45  HO_4.5          1   34    6   0.000   0.000        0
    46  HO_4.6          1   34    6   0.000   0.000        0
    47  HO_4.7          1   34    6   0.000   0.000        0
    48  HO_4.8          1   34    6   0.000   0.000        0
    49  HO_4.9          1   34    6   0.000   0.000        0
    50  HO_4.10         1   34    6   0.000   0.000        0
    51  HO_5.1          1   41    6   0.000   0.000        0
    52  HO_5.2          1   41    6   0.000   0.000        0
    53  HO_5.3          1   41    6   0.000   0.000        0
    54  HO_5.4          1   41    6   0.000   0.000        0
    55  HO_5.5          1   41    6   0.000   0.000        0
    56  HO_5.6          1   41    6   0.000   0.000        0
    57  HO_5.7          1   41    6   0.000   0.000        0
    58  HO_5.8          1   41    6   0.000   0.000        0
    59  HO_5.9          1   41    6   0.000   0.000        0
    60  HO_5.10         1   41    6   0.000   0.000        0
    61  HO_6.1          1   48    6   0.000   0.000        0
    62  HO_6.2          1   48    6   0.000   0.000        0
    63  HO_6.3          1   48    6   0.000   0.000        0
    64  HO_6.4          1   48    6   0.000   0.000        0
    65  HO_6.5          1   48    6   0.000   0.000        0
    66  HO_6.6          1   48    6   0.000   0.000        0
    67  HO_6.7          1   48    6   0.000   0.000        0
    68  HO_6.8          1   48    6   0.000   0.000        0
    69  HO_6.9          1   48    6   0.000   0.000        0
    70  HO_6.10         1   48    6   0.000   0.000        0
    71  HO_7.1          1    6   13   0.000   0.000        0
    72  HO_7.2          1    6   13   0.000   0.000        0
    73  HO_7.3          1    6   13   0.000   0.000        0
    74  HO_7.4          1    6   13   0.000   0.000        0
    75  HO_7.5          1    6   13   0.000   0.000        0
    76  HO_7.6          1    6   13   0.000   0.000        0
    77  HO_7.7          1    6   13   0.000   0.000        0
    78  HO_7.8          1    6   13   0.000   0.000        0
    79  HO_7.9          1    6   13   0.000   0.000        0
    80  HO_7.10         1    6   13   0.000   0.000        0
    81  HO_8.1          1   13   13   0.000   0.000        0
    82  HO_8.2          1   13   13   0.000   0.000        0
    83  HO_8.3          1   13   13   0.000   0.000        0
    84  HO_8.4          1   13   13   0.000   0.000        0
    85  HO_8.5          1   13   13   0.000   0.000        0
    86  HO_8.6          1   13   13   0.000   0.000        0
    87  HO_8.7          1   13   13   0.000   0.000        0
    88  HO_8.8          1   13   13   0.000   0.000        0
    89  HO_8.9          1   13   13   0.000   0.000        0
    90  HO_8.10         1   13   13   0.000   0.000        0
    91  HO_9.1          1   20   13   0.000   0.000        0
    92  HO_9.2          1   20   13   0.000   0.000        0
    93  HO_9.3          1   20   13   0.000   0.000        0
    94  HO_9.4          1   20   13   0.000   0.000        0
    95  HO_9.5          1   20   13   0.000   0.000        0
    96  HO_9.6          1   20   13   0.000   0.000        0
    97  HO_9.7          1   20   13   0.000   0.000        0
    98  HO_9.8          1   20   13   0.000   0.000        0
    99  HO_9.9          1   20   13   0.000   0.000        0
   100  HO_9.10         1   20   13   0.000   0.000        0
   101  HO_10.1         1   27   13   0.000   0.000        0
   102  HO_10.2         1   27   13   0.000   0.000        0
   103  HO_10.3         1   27   13   0.000   0.000        0
   104  HO_10.4         1   27   13   0.000   0.000        0
   105  HO_10.5         1   27   13   0.000   0.000        0
   106  HO_10.6         1   27   13   0.000   0.000        0
   107  HO_10.7         1   27   13   0.000   0.000        0
   108  HO_10.8         1   27   13   0.000   0.000        0
   109  HO_10.9         1   27   13   0.000   0.000        0
   110  HO_10.10        1   27   13   0.000   0.000        0
   111  HO_11.1         1   34   13   0.000   0.000        0
   112  HO_11.2         1   34   13   0.000   0.000        0
   113  HO_11.3         1   34   13   0.000   0.000        0
   114  HO_11.4         1   34   13   0.000   0.000        0
   115  HO_11.5         1   34   13   0.000   0.000        0
   116  HO_11.6         1   34   13   0.000   0.000        0
   117  HO_11.7         1   34   13   0.000   0.000        0
   118  HO_11.8         1   34   13   0.000   0.000        0
   119  HO_11.9         1   34   13   0.000   0.000        0
   120  HO_11.10        1   34   13   0.000   0.000        0
   121  HO_12.1         1   41   13   0.000   0.000        0
   122  HO_12.2         1   41   13   0.000   0.000        0
   123  HO_12.3         1   41   13   0.000   0.000        0
   124  HO_12.4         1   41   13   0.000   0.000        0
   125  HO_12.5         1   41   13   0.000   0.000        0
   126  HO_12.6         1   41   13   0.000   0.000        0
   127  HO_12.7         1   41   13   0.000   0.000        0
   128  HO_12.8         1   41   13   0.000   0.000        0
   129  HO_12.9         1   41   13   0.000   0.000        0
   130  HO_12.10        1   41   13   0.000   0.000        0
   131  HO_13.1         1   48   13   0.000   0.000        0
   132  HO_13.2         1   48   13   0.000   0.000        0
   133  HO_13.3         1   48   13   0.000   0.000        0
   134  HO_13.4         1   48   13   0.000   0.000        0
   135  HO_13.5         1   48   13   0.000   0.000        0
   136  HO_13.6         1   48   13   0.000   0.000        0
   137  HO_13.7         1   48   13   0.000   0.000        0
   138  HO_13.8         1   48   13   0.000   0.000        0
   139  HO_13.9         1   48   13   0.000   0.000        0
   140  HO_13.10        1   48   13   0.000   0.000        0
   141  HO_14.1         1    6   20   0.000   0.000        0
   142  HO_14.2         1    6   20   0.000   0.000        0
   143  HO_14.3         1    6   20   0.000   0.000        0
   144  HO_14.4         1    6   20   0.000   0.000        0
   145  HO_14.5         1    6   20   0.000   0.000        0
   146  HO_14.6         1    6   20   0.000   0.000        0
   147  HO_14.7         1    6   20   0.000   0.000        0
   148  HO_14.8         1    6   20   0.000   0.000        0
   149  HO_14.9         1    6   20   0.000   0.000        0
   150  HO_14.10        1    6   20   0.000   0.000        0
   151  HO_15.1         1   13   20   0.000   0.000        0
   152  HO_15.2         1   13   20   0.000   0.000        0
   153  HO_15.3         1   13   20   0.000   0.000        0
   154  HO_15.4         1   13   20   0.000   0.000        0
   155  HO_15.5         1   13   20   0.000   0.000        0
   156  HO_15.6         1   13   20   0.000   0.000        0
   157  HO_15.7         1   13   20   0.000   0.000        0
   158  HO_15.8         1   13   20   0.000   0.000        0
   159  HO_15.9         1   13   20   0.000   0.000        0
   160  HO_15.10        1   13   20   0.000   0.000        0
   161  HO_16.1         1   20   20   0.000   0.000        0
   162  HO_16.2         1   20   20   0.000   0.000        0
   163  HO_16.3         1   20   20   0.000   0.000        0
   164  HO_16.4         1   20   20   0.000   0.000        0
   165  HO_16.5         1   20   20   0.000   0.000        0
   166  HO_16.6         1   20   20   0.000   0.000        0
   167  HO_16.7         1   20   20   0.000   0.000        0
   168  HO_16.8         1   20   20   0.000   0.000        0
   169  HO_16.9         1   20   20   0.000   0.000        0
   170  HO_16.10        1   20   20   0.000   0.000        0
   171  HO_17.1         1   27   20   0.000   0.000        0
   172  HO_17.2         1   27   20   0.000   0.000        0
   173  HO_17.3         1   27   20   0.000   0.000        0
   174  HO_17.4         1   27   20   0.000   0.000        0
   175  HO_17.5         1   27   20   0.000   0.000        0
   176  HO_17.6         1   27   20   0.000   0.000        0
   177  HO_17.7         1   27   20   0.000   0.000        0
   178  HO_17.8         1   27   20   0.000   0.000        0
   179  HO_17.9         1   27   20   0.000   0.000        0
   180  HO_17.10        1   27   20   0.000   0.000        0
   181  HO_18.1         1   34   20   0.000   0.000        0
   182  HO_18.2         1   34   20   0.000   0.000        0
   183  HO_18.3         1   34   20   0.000   0.000        0
   184  HO_18.4         1   34   20   0.000   0.000        0
   185  HO_18.5         1   34   20   0.000   0.000        0
   186  HO_18.6         1   34   20   0.000   0.000        0
   187  HO_18.7         1   34   20   0.000   0.000        0
   188  HO_18.8         1   34   20   0.000   0.000        0
   189  HO_18.9         1   34   20   0.000   0.000        0
   190  HO_18.10        1   34   20   0.000   0.000        0
   191  HO_19.1         1   41   20   0.000   0.000        0
   192  HO_19.2         1   41   20   0.000   0.000        0
   193  HO_19.3         1   41   20   0.000   0.000        0
   194  HO_19.4         1   41   20   0.000   0.000        0
   195  HO_19.5         1   41   20   0.000   0.000        0
   196  HO_19.6         1   41   20   0.000   0.000        0
   197  HO_19.7         1   41   20   0.000   0.000        0
   198  HO_19.8         1   41   20   0.000   0.000        0
   199  HO_19.9         1   41   20   0.000   0.000        0
   200  HO_19.10        1   41   20   0.000   0.000        0
   201  HO_20.1         1   48   20   0.000   0.000        0
   202  HO_20.2         1   48   20   0.000   0.000        0
   203  HO_20.3         1   48   20   0.000   0.000        0
   204  HO_20.4         1   48   20   0.000   0.000        0
   205  HO_20.5         1   48   20   0.000   0.000        0
   206  HO_20.6         1   48   20   0.000   0.000        0
   207  HO_20.7         1   48   20   0.000   0.000        0
   208  HO_20.8         1   48   20   0.000   0.000        0
   209  HO_20.9         1   48   20   0.000   0.000        0
   210  HO_20.10        1   48   20   0.000   0.000        0
   211  HO_21.1         1    6   27   0.000   0.000        0
   212  HO_21.2         1    6   27   0.000   0.000        0
   213  HO_21.3         1    6   27   0.000   0.000        0
   214  HO_21.4         1    6   27   0.000   0.000        0
   215  HO_21.5         1    6   27   0.000   0.000        0
   216  HO_21.6         1    6   27   0.000   0.000        0
   217  HO_21.7         1    6   27   0.000   0.000        0
   218  HO_21.8         1    6   27   0.000   0.000        0
   219  HO_21.9         1    6   27   0.000   0.000        0
   220  HO_21.10        1    6   27   0.000   0.000        0
   221  HO_22.1         1   13   27   0.000   0.000        0
   222  HO_22.2         1   13   27   0.000   0.000        0
   223  HO_22.3         1   13   27   0.000   0.000        0
   224  HO_22.4         1   13   27   0.000   0.000        0
   225  HO_22.5         1   13   27   0.000   0.000        0
   226  HO_22.6         1   13   27   0.000   0.000        0
   227  HO_22.7         1   13   27   0.000   0.000        0
   228  HO_22.8         1   13   27   0.000   0.000        0
   229  HO_22.9         1   13   27   0.000   0.000        0
   230  HO_22.10        1   13   27   0.000   0.000        0
   231  HO_23.1         1   20   27   0.000   0.000        0
   232  HO_23.2         1   20   27   0.000   0.000        0
   233  HO_23.3         1   20   27   0.000   0.000        0
   234  HO_23.4         1   20   27   0.000   0.000        0
   235  HO_23.5         1   20   27   0.000   0.000        0
   236  HO_23.6         1   20   27   0.000   0.000        0
   237  HO_23.7         1   20   27   0.000   0.000        0
   238  HO_23.8         1   20   27   0.000   0.000        0
   239  HO_23.9         1   20   27   0.000   0.000        0
   240  HO_23.10        1   20   27   0.000   0.000        0
   241  HO_24.1         1   27   27   0.000   0.000        0
   242  HO_24.2         1   27   27   0.000   0.000        0
   243  HO_24.3         1   27   27   0.000   0.000        0
   244  HO_24.4         1   27   27   0.000   0.000        0
   245  HO_24.5         1   27   27   0.000   0.000        0
   246  HO_24.6         1   27   27   0.000   0.000        0
   247  HO_24.7         1   27   27   0.000   0.000        0
   248  HO_24.8         1   27   27   0.000   0.000        0
   249  HO_24.9         1   27   27   0.000   0.000        0
   250  HO_24.10        1   27   27   0.000   0.000        0
   251  HO_25.1         1   34   27   0.000   0.000        0
   252  HO_25.2         1   34   27   0.000   0.000        0
   253  HO_25.3         1   34   27   0.000   0.000        0
   254  HO_25.4         1   34   27   0.000   0.000        0
   255  HO_25.5         1   34   27   0.000   0.000        0
   256  HO_25.6         1   34   27   0.000   0.000        0
   257  HO_25.7         1   34   27   0.000   0.000        0
   258  HO_25.8         1   34   27   0.000   0.000        0
   259  HO_25.9         1   34   27   0.000   0.000        0
   260  HO_25.10        1   34   27   0.000   0.000        0
   261  HO_26.1         1   41   27   0.000   0.000        0
   262  HO_26.2         1   41   27   0.000   0.000        0
   263  HO_26.3         1   41   27   0.000   0.000        0
   264  HO_26.4         1   41   27   0.000   0.000        0
   265  HO_26.5         1   41   27   0.000   0.000        0
   266  HO_26.6         1   41   27   0.000   0.000        0
   267  HO_26.7         1   41   27   0.000   0.000        0
   268  HO_26.8         1   41   27   0.000   0.000        0
   269  HO_26.9         1   41   27   0.000   0.000        0
   270  HO_26.10        1   41   27   0.000   0.000        0
   271  HO_27.1         1   48   27   0.000   0.000        0
   272  HO_27.2         1   48   27   0.000   0.000        0
   273  HO_27.3         1   48   27   0.000   0.000        0
   274  HO_27.4         1   48   27   0.000   0.000        0
   275  HO_27.5         1   48   27   0.000   0.000        0
   276  HO_27.6         1   48   27   0.000   0.000        0
   277  HO_27.7         1   48   27   0.000   0.000        0
   278  HO_27.8         1   48   27   0.000   0.000        0
   279  HO_27.9         1   48   27   0.000   0.000        0
   280  HO_27.10        1   48   27   0.000   0.000        0
   281  HO_28.1         1    6   34   0.000   0.000        0
   282  HO_28.2         1    6   34   0.000   0.000        0
   283  HO_28.3         1    6   34   0.000   0.000        0
   284  HO_28.4         1    6   34   0.000   0.000        0
   285  HO_28.5         1    6   34   0.000   0.000        0
   286  HO_28.6         1    6   34   0.000   0.000        0
   287  HO_28.7         1    6   34   0.000   0.000        0
   288  HO_28.8         1    6   34   0.000   0.000        0
   289  HO_28.9         1    6   34   0.000   0.000        0
   290  HO_28.10        1    6   34   0.000   0.000        0
   291  HO_29.1         1   13   34   0.000   0.000        0
   292  HO_29.2         1   13   34   0.000   0.000        0
   293  HO_29.3         1   13   34   0.000   0.000        0
   294  HO_29.4         1   13   34   0.000   0.000        0
   295  HO_29.5         1   13   34   0.000   0.000        0
   296  HO_29.6         1   13   34   0.000   0.000        0
   297  HO_29.7         1   13   34   0.000   0.000        0
   298  HO_29.8         1   13   34   0.000   0.000        0
   299  HO_29.9         1   13   34   0.000   0.000        0
   300  HO_29.10        1   13   34   0.000   0.000        0
   301  HO_30.1         1   20   34   0.000   0.000        0
   302  HO_30.2         1   20   34   0.000   0.000        0
   303  HO_30.3         1   20   34   0.000   0.000        0
   304  HO_30.4         1   20   34   0.000   0.000        0
   305  HO_30.5         1   20   34   0.000   0.000        0
   306  HO_30.6         1   20   34   0.000   0.000        0
   307  HO_30.7         1   20   34   0.000   0.000        0
   308  HO_30.8         1   20   34   0.000   0.000        0
   309  HO_30.9         1   20   34   0.000   0.000        0
   310  HO_30.10        1   20   34   0.000   0.000        0
   311  HO_31.1         1   27   34   0.000   0.000        0
   312  HO_31.2         1   27   34   0.000   0.000        0
   313  HO_31.3         1   27   34   0.000   0.000        0
   314  HO_31.4         1   27   34   0.000   0.000        0
   315  HO_31.5         1   27   34   0.000   0.000        0
   316  HO_31.6         1   27   34   0.000   0.000        0
   317  HO_31.7         1   27   34   0.000   0.000        0
   318  HO_31.8         1   27   34   0.000   0.000        0
   319  HO_31.9         1   27   34   0.000   0.000        0
   320  HO_31.10        1   27   34   0.000   0.000        0
   321  HO_32.1         1   34   34   0.000   0.000        0
   322  HO_32.2         1   34   34   0.000   0.000        0
   323  HO_32.3         1   34   34   0.000   0.000        0
   324  HO_32.4         1   34   34   0.000   0.000        0
   325  HO_32.5         1   34   34   0.000   0.000        0
   326  HO_32.6         1   34   34   0.000   0.000        0
   327  HO_32.7         1   34   34   0.000   0.000        0
   328  HO_32.8         1   34   34   0.000   0.000        0
   329  HO_32.9         1   34   34   0.000   0.000        0
   330  HO_32.10        1   34   34   0.000   0.000        0
   331  HO_33.1         1   41   34   0.000   0.000        0
   332  HO_33.2         1   41   34   0.000   0.000        0
   333  HO_33.3         1   41   34   0.000   0.000        0
   334  HO_33.4         1   41   34   0.000   0.000        0
   335  HO_33.5         1   41   34   0.000   0.000        0
   336  HO_33.6         1   41   34   0.000   0.000        0
   337  HO_33.7         1   41   34   0.000   0.000        0
   338  HO_33.8         1   41   34   0.000   0.000        0
   339  HO_33.9         1   41   34   0.000   0.000        0
   340  HO_33.10        1   41   34   0.000   0.000        0
   341  HO_34.1         1   48   34   0.000   0.000        0
   342  HO_34.2         1   48   34   0.000   0.000        0
   343  HO_34.3         1   48   34   0.000   0.000        0
   344  HO_34.4         1   48   34   0.000   0.000        0
   345  HO_34.5         1   48   34   0.000   0.000        0
   346  HO_34.6         1   48   34   0.000   0.000        0
   347  HO_34.7         1   48   34   0.000   0.000        0
   348  HO_34.8         1   48   34   0.000   0.000        0
   349  HO_34.9         1   48   34   0.000   0.000        0
   350  HO_34.10        1   48   34   0.000   0.000        0
   351  HO_35.1         1    6   41   0.000   0.000        0
   352  HO_35.2         1    6   41   0.000   0.000        0
   353  HO_35.3         1    6   41   0.000   0.000        0
   354  HO_35.4         1    6   41   0.000   0.000        0
   355  HO_35.5         1    6   41   0.000   0.000        0
   356  HO_35.6         1    6   41   0.000   0.000        0
   357  HO_35.7         1    6   41   0.000   0.000        0
   358  HO_35.8         1    6   41   0.000   0.000        0
   359  HO_35.9         1    6   41   0.000   0.000        0
   360  HO_35.10        1    6   41   0.000   0.000        0
   361  HO_36.1         1   13   41   0.000   0.000        0
   362  HO_36.2         1   13   41   0.000   0.000        0
   363  HO_36.3         1   13   41   0.000   0.000        0
   364  HO_36.4         1   13   41   0.000   0.000        0
   365  HO_36.5         1   13   41   0.000   0.000        0
   366  HO_36.6         1   13   41   0.000   0.000        0
   367  HO_36.7         1   13   41   0.000   0.000        0
   368  HO_36.8         1   13   41   0.000   0.000        0
   369  HO_36.9         1   13   41   0.000   0.000        0
   370  HO_36.10        1   13   41   0.000   0.000        0
   371  HO_37.1         1   20   41   0.000   0.000        0
   372  HO_37.2         1   20   41   0.000   0.000        0
   373  HO_37.3         1   20   41   0.000   0.000        0
   374  HO_37.4         1   20   41   0.000   0.000        0
   375  HO_37.5         1   20   41   0.000   0.000        0
   376  HO_37.6         1   20   41   0.000   0.000        0
   377  HO_37.7         1   20   41   0.000   0.000        0
   378  HO_37.8         1   20   41   0.000   0.000        0
   379  HO_37.9         1   20   41   0.000   0.000        0
   380  HO_37.10        1   20   41   0.000   0.000        0
   381  HO_38.1         1   27   41   0.000   0.000        0
   382  HO_38.2         1   27   41   0.000   0.000        0
   383  HO_38.3         1   27   41   0.000   0.000        0
   384  HO_38.4         1   27   41   0.000   0.000        0
   385  HO_38.5         1   27   41   0.000   0.000        0
   386  HO_38.6         1   27   41   0.000   0.000        0
   387  HO_38.7         1   27   41   0.000   0.000        0
   388  HO_38.8         1   27   41   0.000   0.000        0
   389  HO_38.9         1   27   41   0.000   0.000        0
   390  HO_38.10        1   27   41   0.000   0.000        0
   391  HO_39.1         1   34   41   0.000   0.000        0
   392  HO_39.2         1   34   41   0.000   0.000        0
   393  HO_39.3         1   34   41   0.000   0.000        0
   394  HO_39.4         1   34   41   0.000   0.000        0
   395  HO_39.5         1   34   41   0.000   0.000        0
   396  HO_39.6         1   34   41   0.000   0.000        0
   397  HO_39.7         1   34   41   0.000   0.000        0
   398  HO_39.8         1   34   41   0.000   0.000        0
   399  HO_39.9         1   34   41   0.000   0.000        0
   400  HO_39.10        1   34   41   0.000   0.000        0
   401  HO_40.1         1   41   41   0.000   0.000        0
   402  HO_40.2         1   41   41   0.000   0.000        0
   403  HO_40.3         1   41   41   0.000   0.000        0
   404  HO_40.4         1   41   41   0.000   0.000        0
   405  HO_40.5         1   41   41   0.000   0.000        0
   406  HO_40.6         1   41   41   0.000   0.000        0
   407  HO_40.7         1   41   41   0.000   0.000        0
   408  HO_40.8         1   41   41   0.000   0.000        0
   409  HO_40.9         1   41   41   0.000   0.000        0
   410  HO_40.10        1   41   41   0.000   0.000        0
   411  HO_41.1         1   48   41   0.000   0.000        0
   412  HO_41.2         1   48   41   0.000   0.000        0
   413  HO_41.3         1   48   41   0.000   0.000        0
   414  HO_41.4         1   48   41   0.000   0.000        0
   415  HO_41.5         1   48   41   0.000   0.000        0
   416  HO_41.6         1   48   41   0.000   0.000        0
   417  HO_41.7         1   48   41   0.000   0.000        0
   418  HO_41.8         1   48   41   0.000   0.000        0
   419  HO_41.9         1   48   41   0.000   0.000        0
   420  HO_41.10        1   48   41   0.000   0.000        0
   421  HO_42.1         1    6   48   0.000   0.000        0
   422  HO_42.2         1    6   48   0.000   0.000        0
   423  HO_42.3         1    6   48   0.000   0.000        0
   424  HO_42.4         1    6   48   0.000   0.000        0
   425  HO_42.5         1    6   48   0.000   0.000        0
   426  HO_42.6         1    6   48   0.000   0.000        0
   427  HO_42.7         1    6   48   0.000   0.000        0
   428  HO_42.8         1    6   48   0.000   0.000        0
   429  HO_42.9         1    6   48   0.000   0.000        0
   430  HO_42.10        1    6   48   0.000   0.000        0
   431  HO_43.1         1   13   48   0.000   0.000        0
   432  HO_43.2         1   13   48   0.000   0.000        0
   433  HO_43.3         1   13   48   0.000   0.000        0
   434  HO_43.4         1   13   48   0.000   0.000        0
   435  HO_43.5         1   13   48   0.000   0.000        0
   436  HO_43.6         1   13   48   0.000   0.000        0
   437  HO_43.7         1   13   48   0.000   0.000        0
   438  HO_43.8         1   13   48   0.000   0.000        0
   439  HO_43.9         1   13   48   0.000   0.000        0
   440  HO_43.10        1   13   48   0.000   0.000        0
   441  HO_44.1         1   20   48   0.000   0.000        0
   442  HO_44.2         1   20   48   0.000   0.000        0
   443  HO_44.3         1   20   48   0.000   0.000        0
   444  HO_44.4         1   20   48   0.000   0.000        0
   445  HO_44.5         1   20   48   0.000   0.000        0
   446  HO_44.6         1   20   48   0.000   0.000        0
   447  HO_44.7         1   20   48   0.000   0.000        0
   448  HO_44.8         1   20   48   0.000   0.000        0
   449  HO_44.9         1   20   48   0.000   0.000        0
   450  HO_44.10        1   20   48   0.000   0.000        0
   451  HO_45.1         1   27   48   0.000   0.000        0
   452  HO_45.2         1   27   48   0.000   0.000        0
   453  HO_45.3         1   27   48   0.000   0.000        0
   454  HO_45.4         1   27   48   0.000   0.000        0
   455  HO_45.5         1   27   48   0.000   0.000        0
   456  HO_45.6         1   27   48   0.000   0.000        0
   457  HO_45.7         1   27   48   0.000   0.000        0
   458  HO_45.8         1   27   48   0.000   0.000        0
   459  HO_45.9         1   27   48   0.000   0.000        0
   460  HO_45.10        1   27   48   0.000   0.000        0
   461  HO_46.1         1   34   48   0.000   0.000        0
   462  HO_46.2         1   34   48   0.000   0.000        0
   463  HO_46.3         1   34   48   0.000   0.000        0
   464  HO_46.4         1   34   48   0.000   0.000        0
   465  HO_46.5         1   34   48   0.000   0.000        0
   466  HO_46.6         1   34   48   0.000   0.000        0
   467  HO_46.7         1   34   48   0.000   0.000        0
   468  HO_46.8         1   34   48   0.000   0.000        0
   469  HO_46.9         1   34   48   0.000   0.000        0
   470  HO_46.10        1   34   48   0.000   0.000        0
   471  HO_47.1         1   41   48   0.000   0.000        0
   472  HO_47.2         1   41   48   0.000   0.000        0
   473  HO_47.3         1   41   48   0.000   0.000        0
   474  HO_47.4         1   41   48   0.000   0.000        0
   475  HO_47.5         1   41   48   0.000   0.000        0
   476  HO_47.6         1   41   48   0.000   0.000        0
   477  HO_47.7         1   41   48   0.000   0.000        0
   478  HO_47.8         1   41   48   0.000   0.000        0
   479  HO_47.9         1   41   48   0.000   0.000        0
   480  HO_47.10        1   41   48   0.000   0.000        0
   481  HO_48.1         1   48   48   0.000   0.000        0
   482  HO_48.2         1   48   48   0.000   0.000        0
   483  HO_48.3         1   48   48   0.000   0.000        0
   484  HO_48.4         1   48   48   0.000   0.000        0
   485  HO_48.5         1   48   48   0.000   0.000        0
   486  HO_48.6         1   48   48   0.000   0.000        0
   487  HO_48.7         1   48   48   0.000   0.000        0
   488  HO_48.8         1   48   48   0.000   0.000        0
   489  HO_48.9         1   48   48   0.000   0.000        0
   490  HO_48.10        1   48   48   0.000   0.000        0
1
                            STRESS PERIOD NO.    1, LENGTH =   1.000000    
                            -----------------------------------------------

                              NUMBER OF TIME STEPS =     1

                               MULTIPLIER FOR DELT =     1.000

                            INITIAL TIME STEP SIZE =   1.000000    

 WELL NO.  LAYER   ROW   COL   STRESS RATE         
 --------------------------------------------------
      1      1     25     25       0.000    

      1 WELL 

 BOUND. NO. LAYER   ROW   COL     STAGE      CONDUCTANCE         
 ----------------------------------------------------------------
      1      1      1      1       45.00          0.1000    
      2      1      1     50       45.00          0.1000    
      3      1      2      1       45.00          0.1000    
      4      1      2     50       45.00          0.1000    
      5      1      3      1       45.00          0.1000    
      6      1      3     50       45.00          0.1000    
      7      1      4      1       45.00          0.1000    
      8      1      4     50       45.00          0.1000    
      9      1      5      1       45.00          0.1000    
     10      1      5     50       45.00          0.1000    
     11      1      6      1       45.00          0.1000    
     12      1      6     50       45.00          0.1000    
     13      1      7      1       45.00          0.1000    
     14      1      7     50       45.00          0.1000    
     15      1      8      1       45.00          0.1000    
     16      1      8     50       45.00          0.1000    
     17      1      9      1       45.00          0.1000    
     18      1      9     50       45.00          0.1000    
     19      1     10      1       45.00          0.1000    
     20      1     10     50       45.00          0.1000    
     21      1     11      1       45.00          0.1000    
     22      1     11     50       45.00          0.1000    
     23      1     12      1       45.00          0.1000    
     24      1     12     50       45.00          0.1000    
     25      1     13      1       45.00          0.1000    
     26      1     13     50       45.00          0.1000    
     27      1     14      1       45.00          0.1000    
     28      1     14     50       45.00          0.1000    
     29      1     15      1       45.00          0.1000    
     30      1     15     50       45.00          0.1000    
     31      1     16      1       45.00          0.1000    
     32      1     16     50       45.00          0.1000    
     33      1     17      1       45.00          0.1000    
     34      1     17     50       45.00          0.1000    
     35      1     18      1       45.00          0.1000    
     36      1     18     50       45.00          0.1000    
     37      1     19      1       45.00          0.1000    
     38      1     19     50       45.00          0.1000    
     39      1     20      1       45.00          0.1000    
     40      1     20     50       45.00          0.1000    
     41      1     21      1       45.00          0.1000    
     42      1     21     50       45.00          0.1000    
     43      1     22      1       45.00          0.1000    
     44      1     22     50       45.00          0.1000    
     45      1     23      1       45.00          0.1000    
     46      1     23     50       45.00          0.1000    
     47      1     24      1       45.00          0.1000    
     48      1     24     50       45.00          0.1000    
     49      1     25      1       45.00          0.1000    
     50      1     25     50       45.00          0.1000    
     51      1     26      1       45.00          0.1000    
     52      1     26     50       45.00          0.1000    
     53      1     27      1       45.00          0.1000    
     54      1     27     50       45.00          0.1000    
     55      1     28      1       45.00          0.1000    
     56      1     28     50       45.00          0.1000    
     57      1     29      1       45.00          0.1000    
     58      1     29     50       45.00          0.1000    
     59      1     30      1       45.00          0.1000    
     60      1     30     50       45.00          0.1000    
     61      1     31      1       45.00          0.1000    
     62      1     31     50       45.00          0.1000    
     63      1     32      1       45.00          0.1000    
     64      1     32     50       45.00          0.1000    
     65      1     33      1       45.00          0.1000    
     66      1     33     50       45.00          0.1000    
     67      1     34      1       45.00          0.1000    
     68      1     34     50       45.00          0.1000    
     69      1     35      1       45.00          0.1000    
     70      1     35     50       45.00          0.1000    
     71      1     36      1       45.00          0.1000    
     72      1     36     50       45.00          0.1000    
     73      1     37      1       45.00          0.1000    
     74      1     37     50       45.00          0.1000    
     75      1     38      1       45.00          0.1000    
     76      1     38     50       45.00          0.1000    
     77      1     39      1       45.00          0.1000    
     78      1     39     50       45.00          0.1000    
     79      1     40      1       45.00          0.1000    
     80      1     40     50       45.00          0.1000    
     81      1     41      1       45.00          0.1000    
     82      1     41     50       45.00          0.1000    
     83      1     42      1       45.00          0.1000    
     84      1     42     50       45.00          0.1000    
     85      1     43      1       45.00          0.1000    
     86      1     43     50       45.00          0.1000    
     87      1     44      1       45.00          0.1000    
     88      1     44     50       45.00          0.1000    
     89      1     45      1       45.00          0.1000    
     90      1     45     50       45.00          0.1000    
     91      1     46      1       45.00          0.1000    
     92      1     46     50       45.00          0.1000    
     93      1     47      1       45.00          0.1000    
     94      1     47     50       45.00          0.1000    
     95      1     48      1       45.00          0.1000    
     96      1     48     50       45.00          0.1000    
     97      1     49      1       45.00          0.1000    
     98      1     49     50       45.00          0.1000    
     99      1     50      1       45.00          0.1000    
    100      1     50     50       45.00          0.1000    

    100 GHB CELLS
 
 SOLVING FOR HEAD 
                                                   Max.-Head-Change                         Max.-Flux-Residual
  Residual-Control   Outer-Iter.   Inner-Iter.     Column Row Layer    Maximum-Head-Change  Column Row Layer    Maximum-Flux-Residual          L2-NORM 
          0                 1           1             1    1     1       0.0000000000E+00      25   25    1         0.4940731359E+17                   NaN

    ------------------------------------------------
       NWT REQUIRED            1 OUTER ITERATIONS 
       AND A TOTAL OF          1 INNER ITERATIONS.
    ------------------------------------------------

 OUTPUT CONTROL FOR STRESS PERIOD    1   TIME STEP    1
    SAVE HEAD FOR ALL LAYERS
    PRINT BUDGET
    SAVE BUDGET
 UBDSV2 SAVING "   CONSTANT HEAD" ON UNIT  55 AT TIME STEP     1, STRESS PERIOD   1
 UBDSV1 SAVING "FLOW RIGHT FACE " ON UNIT  55 AT TIME STEP     1, STRESS PERIOD   1
 UBDSV1 SAVING "FLOW FRONT FACE " ON UNIT  55 AT TIME STEP     1, STRESS PERIOD   1

 HEAD WILL BE SAVED ON UNIT   51 AT END OF TIME STEP    1, STRESS PERIOD    1
1
  VOLUMETRIC BUDGET FOR ENTIRE MODEL AT END OF TIME STEP    1, STRESS PERIOD   1
  ------------------------------------------------------------------------------

     CUMULATIVE VOLUMES      L**3       RATES FOR THIS TIME STEP      L**3/T
     ------------------                 ------------------------

[...]
 HO_22.3         0.0000000000                     NaN                 NaN
 HO_22.4         0.0000000000                     NaN                 NaN
 HO_22.5         0.0000000000                     NaN                 NaN
 HO_22.6         0.0000000000                     NaN                 NaN
 HO_22.7         0.0000000000                     NaN                 NaN
 HO_22.8         0.0000000000                     NaN                 NaN
 HO_22.9         0.0000000000                     NaN                 NaN
 HO_22.10        0.0000000000                     NaN                 NaN
 HO_23.1         0.0000000000                     NaN                 NaN
 HO_23.2         0.0000000000                     NaN                 NaN
 HO_23.3         0.0000000000                     NaN                 NaN
 HO_23.4         0.0000000000                     NaN                 NaN
 HO_23.5         0.0000000000                     NaN                 NaN
 HO_23.6         0.0000000000                     NaN                 NaN
 HO_23.7         0.0000000000                     NaN                 NaN
 HO_23.8         0.0000000000                     NaN                 NaN
 HO_23.9         0.0000000000                     NaN                 NaN
 HO_23.10        0.0000000000                     NaN                 NaN
 HO_24.1         0.0000000000                     NaN                 NaN
 HO_24.2         0.0000000000                     NaN                 NaN
 HO_24.3         0.0000000000                     NaN                 NaN
 HO_24.4         0.0000000000                     NaN                 NaN
 HO_24.5         0.0000000000                     NaN                 NaN
 HO_24.6         0.0000000000                     NaN                 NaN
 HO_24.7         0.0000000000                     NaN                 NaN
 HO_24.8         0.0000000000                     NaN                 NaN
 HO_24.9         0.0000000000                     NaN                 NaN
 HO_24.10        0.0000000000                     NaN                 NaN
 HO_25.1         0.0000000000                     NaN                 NaN
 HO_25.2         0.0000000000                     NaN                 NaN
 HO_25.3         0.0000000000                     NaN                 NaN
 HO_25.4         0.0000000000                     NaN                 NaN
 HO_25.5         0.0000000000                     NaN                 NaN
 HO_25.6         0.0000000000                     NaN                 NaN
 HO_25.7         0.0000000000                     NaN                 NaN
 HO_25.8         0.0000000000                     NaN                 NaN
 HO_25.9         0.0000000000                     NaN                 NaN
 HO_25.10        0.0000000000                     NaN                 NaN
 HO_26.1         0.0000000000                     NaN                 NaN
 HO_26.2         0.0000000000                     NaN                 NaN
 HO_26.3         0.0000000000                     NaN                 NaN
 HO_26.4         0.0000000000                     NaN                 NaN
 HO_26.5         0.0000000000                     NaN                 NaN
 HO_26.6         0.0000000000                     NaN                 NaN
 HO_26.7         0.0000000000                     NaN                 NaN
 HO_26.8         0.0000000000                     NaN                 NaN
 HO_26.9         0.0000000000                     NaN                 NaN
 HO_26.10        0.0000000000                     NaN                 NaN
 HO_27.1         0.0000000000                     NaN                 NaN
 HO_27.2         0.0000000000                     NaN                 NaN
 HO_27.3         0.0000000000                     NaN                 NaN
 HO_27.4         0.0000000000                     NaN                 NaN
 HO_27.5         0.0000000000                     NaN                 NaN
 HO_27.6         0.0000000000                     NaN                 NaN
 HO_27.7         0.0000000000                     NaN                 NaN
 HO_27.8         0.0000000000                     NaN                 NaN
 HO_27.9         0.0000000000                     NaN                 NaN
 HO_27.10        0.0000000000                     NaN                 NaN
 HO_28.1         0.0000000000                     NaN                 NaN
 HO_28.2         0.0000000000                     NaN                 NaN
 HO_28.3         0.0000000000                     NaN                 NaN
 HO_28.4         0.0000000000                     NaN                 NaN
 HO_28.5         0.0000000000                     NaN                 NaN
 HO_28.6         0.0000000000                     NaN                 NaN
 HO_28.7         0.0000000000                     NaN                 NaN
 HO_28.8         0.0000000000                     NaN                 NaN
 HO_28.9         0.0000000000                     NaN                 NaN
 HO_28.10        0.0000000000                     NaN                 NaN
 HO_29.1         0.0000000000                     NaN                 NaN
 HO_29.2         0.0000000000                     NaN                 NaN
 HO_29.3         0.0000000000                     NaN                 NaN
 HO_29.4         0.0000000000                     NaN                 NaN
 HO_29.5         0.0000000000                     NaN                 NaN
 HO_29.6         0.0000000000                     NaN                 NaN
 HO_29.7         0.0000000000                     NaN                 NaN
 HO_29.8         0.0000000000                     NaN                 NaN
 HO_29.9         0.0000000000                     NaN                 NaN
 HO_29.10        0.0000000000                     NaN                 NaN
 HO_30.1         0.0000000000                     NaN                 NaN
 HO_30.2         0.0000000000                     NaN                 NaN
 HO_30.3         0.0000000000                     NaN                 NaN
 HO_30.4         0.0000000000                     NaN                 NaN
 HO_30.5         0.0000000000                     NaN                 NaN
 HO_30.6         0.0000000000                     NaN                 NaN
 HO_30.7         0.0000000000                     NaN                 NaN
 HO_30.8         0.0000000000                     NaN                 NaN
 HO_30.9         0.0000000000                     NaN                 NaN
 HO_30.10        0.0000000000                     NaN                 NaN
 HO_31.1         0.0000000000                     NaN                 NaN
 HO_31.2         0.0000000000                     NaN                 NaN
 HO_31.3         0.0000000000                     NaN                 NaN
 HO_31.4         0.0000000000                     NaN                 NaN
 HO_31.5         0.0000000000                     NaN                 NaN
 HO_31.6         0.0000000000                     NaN                 NaN
 HO_31.7         0.0000000000                     NaN                 NaN
 HO_31.8         0.0000000000                     NaN                 NaN
 HO_31.9         0.0000000000                     NaN                 NaN
 HO_31.10        0.0000000000                     NaN                 NaN
 HO_32.1         0.0000000000                     NaN                 NaN
 HO_32.2         0.0000000000                     NaN                 NaN
 HO_32.3         0.0000000000                     NaN                 NaN
 HO_32.4         0.0000000000                     NaN                 NaN
 HO_32.5         0.0000000000                     NaN                 NaN
 HO_32.6         0.0000000000                     NaN                 NaN
 HO_32.7         0.0000000000                     NaN                 NaN
 HO_32.8         0.0000000000                     NaN                 NaN
 HO_32.9         0.0000000000                     NaN                 NaN
 HO_32.10        0.0000000000                     NaN                 NaN
 HO_33.1         0.0000000000                     NaN                 NaN
 HO_33.2         0.0000000000                     NaN                 NaN
 HO_33.3         0.0000000000                     NaN                 NaN
 HO_33.4         0.0000000000                     NaN                 NaN
 HO_33.5         0.0000000000                     NaN                 NaN
 HO_33.6         0.0000000000                     NaN                 NaN
 HO_33.7         0.0000000000                     NaN                 NaN
 HO_33.8         0.0000000000                     NaN                 NaN
 HO_33.9         0.0000000000                     NaN                 NaN
 HO_33.10        0.0000000000                     NaN                 NaN
 HO_34.1         0.0000000000                     NaN                 NaN
 HO_34.2         0.0000000000                     NaN                 NaN
 HO_34.3         0.0000000000                     NaN                 NaN
 HO_34.4         0.0000000000                     NaN                 NaN
 HO_34.5         0.0000000000                     NaN                 NaN
 HO_34.6         0.0000000000                     NaN                 NaN
 HO_34.7         0.0000000000                     NaN                 NaN
 HO_34.8         0.0000000000                     NaN                 NaN
 HO_34.9         0.0000000000                     NaN                 NaN
 HO_34.10        0.0000000000                     NaN                 NaN
 HO_35.1         0.0000000000                     NaN                 NaN
 HO_35.2         0.0000000000                     NaN                 NaN
 HO_35.3         0.0000000000                     NaN                 NaN
 HO_35.4         0.0000000000                     NaN                 NaN
 HO_35.5         0.0000000000                     NaN                 NaN
 HO_35.6         0.0000000000                     NaN                 NaN
 HO_35.7         0.0000000000                     NaN                 NaN
 HO_35.8         0.0000000000                     NaN                 NaN
 HO_35.9         0.0000000000                     NaN                 NaN
 HO_35.10        0.0000000000                     NaN                 NaN
 HO_36.1         0.0000000000                     NaN                 NaN
 HO_36.2         0.0000000000                     NaN                 NaN
 HO_36.3         0.0000000000                     NaN                 NaN
 HO_36.4         0.0000000000                     NaN                 NaN
 HO_36.5         0.0000000000                     NaN                 NaN
 HO_36.6         0.0000000000                     NaN                 NaN
 HO_36.7         0.0000000000                     NaN                 NaN
 HO_36.8         0.0000000000                     NaN                 NaN
 HO_36.9         0.0000000000                     NaN                 NaN
 HO_36.10        0.0000000000                     NaN                 NaN
 HO_37.1         0.0000000000                     NaN                 NaN
 HO_37.2         0.0000000000                     NaN                 NaN
 HO_37.3         0.0000000000                     NaN                 NaN
 HO_37.4         0.0000000000                     NaN                 NaN
 HO_37.5         0.0000000000                     NaN                 NaN
 HO_37.6         0.0000000000                     NaN                 NaN
 HO_37.7         0.0000000000                     NaN                 NaN
 HO_37.8         0.0000000000                     NaN                 NaN
 HO_37.9         0.0000000000                     NaN                 NaN
 HO_37.10        0.0000000000                     NaN                 NaN
 HO_38.1         0.0000000000                     NaN                 NaN
 HO_38.2         0.0000000000                     NaN                 NaN
 HO_38.3         0.0000000000                     NaN                 NaN
 HO_38.4         0.0000000000                     NaN                 NaN
 HO_38.5         0.0000000000                     NaN                 NaN
 HO_38.6         0.0000000000                     NaN                 NaN
 HO_38.7         0.0000000000                     NaN                 NaN
 HO_38.8         0.0000000000                     NaN                 NaN
 HO_38.9         0.0000000000                     NaN                 NaN
 HO_38.10        0.0000000000                     NaN                 NaN
 HO_39.1         0.0000000000                     NaN                 NaN
 HO_39.2         0.0000000000                     NaN                 NaN
 HO_39.3         0.0000000000                     NaN                 NaN
 HO_39.4         0.0000000000                     NaN                 NaN
 HO_39.5         0.0000000000                     NaN                 NaN
 HO_39.6         0.0000000000                     NaN                 NaN
 HO_39.7         0.0000000000                     NaN                 NaN
 HO_39.8         0.0000000000                     NaN                 NaN
 HO_39.9         0.0000000000                     NaN                 NaN
 HO_39.10        0.0000000000                     NaN                 NaN
 HO_40.1         0.0000000000                     NaN                 NaN
 HO_40.2         0.0000000000                     NaN                 NaN
 HO_40.3         0.0000000000                     NaN                 NaN
 HO_40.4         0.0000000000                     NaN                 NaN
 HO_40.5         0.0000000000                     NaN                 NaN
 HO_40.6         0.0000000000                     NaN                 NaN
 HO_40.7         0.0000000000                     NaN                 NaN
 HO_40.8         0.0000000000                     NaN                 NaN
 HO_40.9         0.0000000000                     NaN                 NaN
 HO_40.10        0.0000000000                     NaN                 NaN
 HO_41.1         0.0000000000                     NaN                 NaN
 HO_41.2         0.0000000000                     NaN                 NaN
 HO_41.3         0.0000000000                     NaN                 NaN
 HO_41.4         0.0000000000                     NaN                 NaN
 HO_41.5         0.0000000000                     NaN                 NaN
 HO_41.6         0.0000000000                     NaN                 NaN
 HO_41.7         0.0000000000                     NaN                 NaN
 HO_41.8         0.0000000000                     NaN                 NaN
 HO_41.9         0.0000000000                     NaN                 NaN
 HO_41.10        0.0000000000                     NaN                 NaN
 HO_42.1         0.0000000000                     NaN                 NaN
 HO_42.2         0.0000000000                     NaN                 NaN
 HO_42.3         0.0000000000                     NaN                 NaN
 HO_42.4         0.0000000000                     NaN                 NaN
 HO_42.5         0.0000000000                     NaN                 NaN
 HO_42.6         0.0000000000                     NaN                 NaN
 HO_42.7         0.0000000000                     NaN                 NaN
 HO_42.8         0.0000000000                     NaN                 NaN
 HO_42.9         0.0000000000                     NaN                 NaN
 HO_42.10        0.0000000000                     NaN                 NaN
 HO_43.1         0.0000000000                     NaN                 NaN
 HO_43.2         0.0000000000                     NaN                 NaN
 HO_43.3         0.0000000000                     NaN                 NaN
 HO_43.4         0.0000000000                     NaN                 NaN
 HO_43.5         0.0000000000                     NaN                 NaN
 HO_43.6         0.0000000000                     NaN                 NaN
 HO_43.7         0.0000000000                     NaN                 NaN
 HO_43.8         0.0000000000                     NaN                 NaN
 HO_43.9         0.0000000000                     NaN                 NaN
 HO_43.10        0.0000000000                     NaN                 NaN
 HO_44.1         0.0000000000                     NaN                 NaN
 HO_44.2         0.0000000000                     NaN                 NaN
 HO_44.3         0.0000000000                     NaN                 NaN
 HO_44.4         0.0000000000                     NaN                 NaN
 HO_44.5         0.0000000000                     NaN                 NaN
 HO_44.6         0.0000000000                     NaN                 NaN
 HO_44.7         0.0000000000                     NaN                 NaN
 HO_44.8         0.0000000000                     NaN                 NaN
 HO_44.9         0.0000000000                     NaN                 NaN
 HO_44.10        0.0000000000                     NaN                 NaN
 HO_45.1         0.0000000000                     NaN                 NaN
 HO_45.2         0.0000000000                     NaN                 NaN
 HO_45.3         0.0000000000                     NaN                 NaN
 HO_45.4         0.0000000000                     NaN                 NaN
 HO_45.5         0.0000000000                     NaN                 NaN
 HO_45.6         0.0000000000                     NaN                 NaN
 HO_45.7         0.0000000000                     NaN                 NaN
 HO_45.8         0.0000000000                     NaN                 NaN
 HO_45.9         0.0000000000                     NaN                 NaN
 HO_45.10        0.0000000000                     NaN                 NaN
 HO_46.1         0.0000000000                     NaN                 NaN
 HO_46.2         0.0000000000                     NaN                 NaN
 HO_46.3         0.0000000000                     NaN                 NaN
 HO_46.4         0.0000000000                     NaN                 NaN
 HO_46.5         0.0000000000                     NaN                 NaN
 HO_46.6         0.0000000000                     NaN                 NaN
 HO_46.7         0.0000000000                     NaN                 NaN
 HO_46.8         0.0000000000                     NaN                 NaN
 HO_46.9         0.0000000000                     NaN                 NaN
 HO_46.10        0.0000000000                     NaN                 NaN
 HO_47.1         0.0000000000                     NaN                 NaN
 HO_47.2         0.0000000000                     NaN                 NaN
 HO_47.3         0.0000000000                     NaN                 NaN
 HO_47.4         0.0000000000                     NaN                 NaN
 HO_47.5         0.0000000000                     NaN                 NaN
 HO_47.6         0.0000000000                     NaN                 NaN
 HO_47.7         0.0000000000                     NaN                 NaN
 HO_47.8         0.0000000000                     NaN                 NaN
 HO_47.9         0.0000000000                     NaN                 NaN
 HO_47.10        0.0000000000                     NaN                 NaN
 HO_48.1         0.0000000000                     NaN                 NaN
 HO_48.2         0.0000000000                     NaN                 NaN
 HO_48.3         0.0000000000                     NaN                 NaN
 HO_48.4         0.0000000000                     NaN                 NaN
 HO_48.5         0.0000000000                     NaN                 NaN
 HO_48.6         0.0000000000                     NaN                 NaN
 HO_48.7         0.0000000000                     NaN                 NaN
 HO_48.8         0.0000000000                     NaN                 NaN
 HO_48.9         0.0000000000                     NaN                 NaN
 HO_48.10        0.0000000000                     NaN                 NaN

 HEAD/DRAWDOWN SUM OF SQUARED DIFFERENCE:            NaN

 Run end date and time (yyyy/mm/dd hh:mm:ss): 2019/06/11 19:56:24
 Elapsed run time:  0.061 Seconds

