                                  MODFLOW-LGR2     
      U.S. GEOLOGICAL SURVEY MODULAR FINITE-DIFFERENCE GROUND-WATER FLOW MODEL
                 VERSION GWM-2005 1.5.2 091115,FROM MF-LGR V2.0

 LIST FILE: dewater.fr.lst
                         UNIT   10

 OPENING ..\data\DEWATER\dewater.dis
 FILE TYPE:DIS   UNIT   11   STATUS:OLD    
 FORMAT:FORMATTED              ACCESS:SEQUENTIAL          

 OPENING ..\data\DEWATER\dewater.ba6
 FILE TYPE:BAS6   UNIT   12   STATUS:OLD    
 FORMAT:FORMATTED              ACCESS:SEQUENTIAL          

 OPENING ..\data\DEWATER\dewater.bc6
 FILE TYPE:BCF6   UNIT   13   STATUS:OLD    
 FORMAT:FORMATTED              ACCESS:SEQUENTIAL          

 OPENING ..\data\DEWATER\dewater.pcg
 FILE TYPE:PCG   UNIT   14   STATUS:OLD    
 FORMAT:FORMATTED              ACCESS:SEQUENTIAL          

 OPENING ..\data\DEWATER\dewater.fr.gwm
 FILE TYPE:GWM   UNIT   15   STATUS:OLD    
 FORMAT:FORMATTED              ACCESS:SEQUENTIAL          

 BAS -- BASIC PACKAGE, VERSION 7, 5/2/2005 INPUT READ FROM UNIT   12
 
 MODFLOW was compiled using uniform precision
 Precision of REAL and DOUBLE PRECISION variables:          15

 DISCRETIZATION INPUT DATA READ FROM UNIT   11
 #DEWATER Sample Problem
 #February 20, 2005
    1 LAYERS        20 ROWS        30 COLUMNS
    1 STRESS PERIOD(S) IN SIMULATION
 MODEL TIME UNIT IS DAYS
 MODEL LENGTH UNIT IS UNDEFINED
  Confining bed flag for each layer:
   0

                     DELR =   100.000    

                     DELC =   100.000    

 TOP ELEVATION OF LAYER 1 =   100.000    

   MODEL LAYER BOTTOM EL. =   100.000     FOR LAYER   1


 STRESS PERIOD     LENGTH       TIME STEPS     MULTIPLIER FOR DELT    SS FLAG
 ----------------------------------------------------------------------------
        1         1000.000          1                    1.000         SS

 STEADY-STATE SIMULATION



 
 #DEWATER Sample Problem                                                         
 #February 20, 2005                                                              
 THE FREE FORMAT OPTION HAS BEEN SELECTED



                     BOUNDARY ARRAY FOR LAYER   1
 READING ON UNIT   12 WITH FORMAT: (20I4)              

                1           2           3           4           5           6           7           8           9          10
               11          12          13          14          15          16          17          18          19          20
               21          22          23          24          25          26          27          28          29          30
 ............................................................................................................................
   1           -1           1           1           1           1           1           1           1           1           1
                1           1           1           1           1           1           1           1           1           1
                1           1           1           1           1           1           1           1           1          -1
   2           -1           1           1           1           1           1           1           1           1           1
                1           1           1           1           1           1           1           1           1           1
                1           1           1           1           1           1           1           1           1          -1
   3           -1           1           1           1           1           1           1           1           1           1
                1           1           1           1           1           1           1           1           1           1
                1           1           1           1           1           1           1           1           1          -1
   4           -1           1           1           1           1           1           1           1           1           1
                1           1           1           1           1           1           1           1           1           1
                1           1           1           1           1           1           1           1           1          -1
   5           -1           1           1           1           1           1           1           1           1           1
                1           1           1           1           1           1           1           1           1           1
                1           1           1           1           1           1           1           1           1          -1
   6           -1           1           1           1           1           1           1           1           1           1
                1           1           1           1           1           1           1           1           1           1
                1           1           1           1           1           1           1           1           1          -1
   7           -1           1           1           1           1           1           1           1           1           1
                1           1           1           1           1           1           1           1           1           1
                1           1           1           1           1           1           1           1           1          -1
   8           -1           1           1           1           1           1           1           1           1           1
                1           1           1           1           1           1           1           1           1           1
                1           1           1           1           1           1           1           1           1          -1
   9           -1           1           1           1           1           1           1           1           1           1
                1           1           1           1           1           1           1           1           1           1
                1           1           1           1           1           1           1           1           1          -1
  10           -1           1           1           1           1           1           1           1           1           1
                1           1           1           1           1           1           1           1           1           1
                1           1           1           1           1           1           1           1           1          -1
  11           -1           1           1           1           1           1           1           1           1           1
                1           1           1           1           1           1           1           1           1           1
                1           1           1           1           1           1           1           1           1          -1
  12           -1           1           1           1           1           1           1           1           1           1
                1           1           1           1           1           1           1           1           1           1
                1           1           1           1           1           1           1           1           1          -1
  13           -1           1           1           1           1           1           1           1           1           1
                1           1           1           1           1           1           1           1           1           1
                1           1           1           1           1           1           1           1           1          -1
  14           -1           1           1           1           1           1           1           1           1           1
                1           1           1           1           1           1           1           1           1           1
                1           1           1           1           1           1           1           1           1          -1
  15           -1           1           1           1           1           1           1           1           1           1
                1           1           1           1           1           1           1           1           1           1
                1           1           1           1           1           1           1           1           1          -1
  16           -1           1           1           1           1           1           1           1           1           1
                1           1           1           1           1           1           1           1           1           1
                1           1           1           1           1           1           1           1           1          -1
  17           -1           1           1           1           1           1           1           1           1           1
                1           1           1           1           1           1           1           1           1           1
                1           1           1           1           1           1           1           1           1          -1
  18           -1           1           1           1           1           1           1           1           1           1
                1           1           1           1           1           1           1           1           1           1
                1           1           1           1           1           1           1           1           1          -1
  19           -1           1           1           1           1           1           1           1           1           1
                1           1           1           1           1           1           1           1           1           1
                1           1           1           1           1           1           1           1           1          -1
  20           -1           1           1           1           1           1           1           1           1           1
                1           1           1           1           1           1           1           1           1           1
                1           1           1           1           1           1           1           1           1          -1

 AQUIFER HEAD WILL BE SET TO   0.0000     AT ALL NO-FLOW NODES (IBOUND=0).



                       INITIAL HEAD FOR LAYER   1
 READING ON UNIT   12 WITH FORMAT: (10F13.0)           

            1           2           3           4           5           6           7           8           9          10
           11          12          13          14          15          16          17          18          19          20
           21          22          23          24          25          26          27          28          29          30
 ........................................................................................................................
   1    80.00       70.00       70.00       70.00       70.00       70.00       70.00       70.00       70.00       70.00    
        70.00       70.00       70.00       70.00       70.00       70.00       70.00       70.00       70.00       70.00    
        70.00       70.00       70.00       70.00       70.00       70.00       70.00       70.00       70.00       60.00    
   2    80.00       70.00       70.00       70.00       70.00       70.00       70.00       70.00       70.00       70.00    
        70.00       70.00       70.00       70.00       70.00       70.00       70.00       70.00       70.00       70.00    
        70.00       70.00       70.00       70.00       70.00       70.00       70.00       70.00       70.00       60.00    
   3    80.00       70.00       70.00       70.00       70.00       70.00       70.00       70.00       70.00       70.00    
        70.00       70.00       70.00       70.00       70.00       70.00       70.00       70.00       70.00       70.00    
        70.00       70.00       70.00       70.00       70.00       70.00       70.00       70.00       70.00       60.00    
   4    80.00       70.00       70.00       70.00       70.00       70.00       70.00       70.00       70.00       70.00    
        70.00       70.00       70.00       70.00       70.00       70.00       70.00       70.00       70.00       70.00    
        70.00       70.00       70.00       70.00       70.00       70.00       70.00       70.00       70.00       60.00    
   5    80.00       70.00       70.00       70.00       70.00       70.00       70.00       70.00       70.00       70.00    
        70.00       70.00       70.00       70.00       70.00       70.00       70.00       70.00       70.00       70.00    
        70.00       70.00       70.00       70.00       70.00       70.00       70.00       70.00       70.00       60.00    
   6    80.00       70.00       70.00       70.00       70.00       70.00       70.00       70.00       70.00       70.00    
        70.00       70.00       70.00       70.00       70.00       70.00       70.00       70.00       70.00       70.00    
        70.00       70.00       70.00       70.00       70.00       70.00       70.00       70.00       70.00       60.00    
   7    80.00       70.00       70.00       70.00       70.00       70.00       70.00       70.00       70.00       70.00    
        70.00       70.00       70.00       70.00       70.00       70.00       70.00       70.00       70.00       70.00    
        70.00       70.00       70.00       70.00       70.00       70.00       70.00       70.00       70.00       60.00    
   8    80.00       70.00       70.00       70.00       70.00       70.00       70.00       70.00       70.00       70.00    
        70.00       70.00       70.00       70.00       70.00       70.00       70.00       70.00       70.00       70.00    
        70.00       70.00       70.00       70.00       70.00       70.00       70.00       70.00       70.00       60.00    
   9    80.00       70.00       70.00       70.00       70.00       70.00       70.00       70.00       70.00       70.00    
        70.00       70.00       70.00       70.00       70.00       70.00       70.00       70.00       70.00       70.00    
        70.00       70.00       70.00       70.00       70.00       70.00       70.00       70.00       70.00       60.00    
  10    80.00       70.00       70.00       70.00       70.00       70.00       70.00       70.00       70.00       70.00    
        70.00       70.00       70.00       70.00       70.00       70.00       70.00       70.00       70.00       70.00    
        70.00       70.00       70.00       70.00       70.00       70.00       70.00       70.00       70.00       60.00    
  11    80.00       70.00       70.00       70.00       70.00       70.00       70.00       70.00       70.00       70.00    
        70.00       70.00       70.00       70.00       70.00       70.00       70.00       70.00       70.00       70.00    
        70.00       70.00       70.00       70.00       70.00       70.00       70.00       70.00       70.00       60.00    
  12    80.00       70.00       70.00       70.00       70.00       70.00       70.00       70.00       70.00       70.00    
        70.00       70.00       70.00       70.00       70.00       70.00       70.00       70.00       70.00       70.00    
        70.00       70.00       70.00       70.00       70.00       70.00       70.00       70.00       70.00       60.00    
  13    80.00       70.00       70.00       70.00       70.00       70.00       70.00       70.00       70.00       70.00    
        70.00       70.00       70.00       70.00       70.00       70.00       70.00       70.00       70.00       70.00    
        70.00       70.00       70.00       70.00       70.00       70.00       70.00       70.00       70.00       60.00    
  14    80.00       70.00       70.00       70.00       70.00       70.00       70.00       70.00       70.00       70.00    
        70.00       70.00       70.00       70.00       70.00       70.00       70.00       70.00       70.00       70.00    
        70.00       70.00       70.00       70.00       70.00       70.00       70.00       70.00       70.00       60.00    
  15    80.00       70.00       70.00       70.00       70.00       70.00       70.00       70.00       70.00       70.00    
        70.00       70.00       70.00       70.00       70.00       70.00       70.00       70.00       70.00       70.00    
        70.00       70.00       70.00       70.00       70.00       70.00       70.00       70.00       70.00       60.00    
  16    80.00       70.00       70.00       70.00       70.00       70.00       70.00       70.00       70.00       70.00    
        70.00       70.00       70.00       70.00       70.00       70.00       70.00       70.00       70.00       70.00    
        70.00       70.00       70.00       70.00       70.00       70.00       70.00       70.00       70.00       60.00    
  17    80.00       70.00       70.00       70.00       70.00       70.00       70.00       70.00       70.00       70.00    
        70.00       70.00       70.00       70.00       70.00       70.00       70.00       70.00       70.00       70.00    
        70.00       70.00       70.00       70.00       70.00       70.00       70.00       70.00       70.00       60.00    
  18    80.00       70.00       70.00       70.00       70.00       70.00       70.00       70.00       70.00       70.00    
        70.00       70.00       70.00       70.00       70.00       70.00       70.00       70.00       70.00       70.00    
        70.00       70.00       70.00       70.00       70.00       70.00       70.00       70.00       70.00       60.00    
  19    80.00       70.00       70.00       70.00       70.00       70.00       70.00       70.00       70.00       70.00    
        70.00       70.00       70.00       70.00       70.00       70.00       70.00       70.00       70.00       70.00    
        70.00       70.00       70.00       70.00       70.00       70.00       70.00       70.00       70.00       60.00    
  20    80.00       70.00       70.00       70.00       70.00       70.00       70.00       70.00       70.00       70.00    
        70.00       70.00       70.00       70.00       70.00       70.00       70.00       70.00       70.00       70.00    
        70.00       70.00       70.00       70.00       70.00       70.00       70.00       70.00       70.00       60.00    

 DEFAULT OUTPUT CONTROL
 THE FOLLOWING OUTPUT COMES AT THE END OF EACH STRESS PERIOD:
 TOTAL VOLUMETRIC BUDGET
           HEAD

 PCG -- CONJUGATE-GRADIENT SOLUTION PACKAGE, VERSION 7, 5/2/2005
 MAXIMUM OF     50 CALLS OF SOLUTION ROUTINE
 MAXIMUM OF      5 INTERNAL ITERATIONS PER CALL TO SOLUTION ROUTINE
 MATRIX PRECONDITIONING TYPE :    1



                                    SOLUTION BY THE CONJUGATE-GRADIENT METHOD
                                   -------------------------------------------
                    MAXIMUM NUMBER OF CALLS TO PCG ROUTINE =       50
                        MAXIMUM ITERATIONS PER CALL TO PCG =        5
                               MATRIX PRECONDITIONING TYPE =        1
        RELAXATION FACTOR (ONLY USED WITH PRECOND. TYPE 1) =    0.10000E+01
 PARAMETER OF POLYNOMIAL PRECOND. = 2 (2) OR IS CALCULATED :        0
                         HEAD CHANGE CRITERION FOR CLOSURE =    0.10000E-07
                     RESIDUAL CHANGE CRITERION FOR CLOSURE =    0.10000E+01
            PCG HEAD AND RESIDUAL CHANGE PRINTOUT INTERVAL =        1
     PRINTING FROM SOLVER IS LIMITED(1) OR SUPPRESSED (>1) =        0
                            STEADY-STATE DAMPING PARAMETER =    0.10000E+01
                               TRANSIENT DAMPING PARAMETER =    0.10000E+01

     BASE FLOW PROCESS SIMULATION FOR GWM                                                                                                                                                                    


 BCF -- BLOCK-CENTERED FLOW PACKAGE, VERSION 7, 5/2/2005
         INPUT READ FROM UNIT 13
 STEADY-STATE SIMULATION
 HEAD AT CELLS THAT CONVERT TO DRY=   0.0000    
 WETTING CAPABILITY IS ACTIVE
 WETTING FACTOR=   1.00000     WETTING ITERATION INTERVAL=   1
 FLAG THAT SPECIFIES THE EQUATION TO USE FOR HEAD AT WETTED CELLS=   0
      LAYER  LAYER-TYPE CODE     INTERBLOCK T
      --------------------------------------------
         1            0          0 -- HARMONIC    

 COLUMN TO ROW ANISOTROPY =   1.00000    

     TRANSMIS. ALONG ROWS =   50.0000     FOR LAYER   1
1
                            STRESS PERIOD NO.    1, LENGTH =   1000.000    
                            -----------------------------------------------

                              NUMBER OF TIME STEPS =     1

                               MULTIPLIER FOR DELT =     1.000

                            INITIAL TIME STEP SIZE =   1000.000    

Flows at Managed Wells for Stress Period    1

 Well no.  Layer   Row   Col   Stress Rate
 ----------------------------------------------------
        1      1     7    14   -1000.000000000000    
        2      1     7    16   -70.00000000000000    
        3      1     8    15    0.000000000000000    
        4      1     9    14   -800.0000000000000    
        5      1     9    16    0.000000000000000    
        6      1    11    17    0.000000000000000    
        7      1    13    16   -900.0000000000000    
 ----------------------------------------------------
                      Total:   -2770.000000000000    
 
 SOLVING FOR HEAD 


    10 CALLS TO PCG ROUTINE FOR TIME STEP   1 IN STRESS PERIOD    1
    44 TOTAL ITERATIONS

 MAXIMUM HEAD CHANGE FOR EACH ITERATION (1 INDICATES THE FIRST INNER ITERATION):

    HEAD CHANGE    HEAD CHANGE    HEAD CHANGE    HEAD CHANGE    HEAD CHANGE 
   LAYER,ROW,COL  LAYER,ROW,COL  LAYER,ROW,COL  LAYER,ROW,COL  LAYER,ROW,COL
 ---------------------------------------------------------------------------
  1  -25.26      0  -12.73      0   4.897      0   3.095      0   1.649    
   (  1,  7, 14)  (  1,  2, 18)  (  1,  1, 10)  (  1,  1, 10)  (  1,  1, 13)
  1 -0.7933      0  0.4000      0  0.2294      0  0.2759      0  0.1265    
   (  1,  4, 16)  (  1, 20,  9)  (  1, 19, 24)  (  1,  1, 11)  (  1,  6, 12)
  1 -0.7351E-01  0 -0.5210E-01  0  0.3432E-01  0  0.1056E-01  0  0.8236E-02
   (  1,  7, 14)  (  1,  6, 22)  (  1,  1, 10)  (  1,  3, 23)  (  1,  3, 15)
  1 -0.4041E-02  0  0.2673E-02  0  0.1462E-02  0  0.1480E-02  0  0.5407E-03
   (  1,  4, 16)  (  1,  5, 14)  (  1,  7,  9)  (  1,  2, 12)  (  1,  5, 12)
  1 -0.4622E-03  0 -0.3524E-03  0  0.2108E-03  0  0.7070E-04  0  0.5213E-04
   (  1,  9, 16)  (  1,  7, 22)  (  1,  2, 11)  (  1,  6,  8)  (  1,  1, 13)
  1 -0.2646E-04  0  0.1807E-04  0  0.1035E-04  0  0.9275E-05  0  0.3624E-05
   (  1,  5, 17)  (  1,  5, 14)  (  1,  7,  9)  (  1,  2, 12)  (  1,  5, 12)
  1 -0.3080E-05  0 -0.2367E-05  0  0.1423E-05  0  0.4673E-06  0  0.3504E-06
   (  1,  9, 16)  (  1,  7, 22)  (  1,  2, 11)  (  1,  6,  8)  (  1,  1, 13)
  1 -0.1744E-06  0  0.1247E-06  0  0.7232E-07  0  0.6061E-07  0  0.2440E-07
   (  1,  5, 17)  (  1,  5, 14)  (  1,  7, 10)  (  1,  2, 12)  (  1,  4, 11)
  1 -0.2088E-07  0 -0.1617E-07  0  0.9694E-08  1  0.2364E-08
   (  1,  9, 16)  (  1,  7, 22)  (  1,  2, 11)  (  1,  3, 24)

 MAXIMUM RESIDUAL FOR EACH ITERATION (1 INDICATES THE FIRST INNER ITERATION):

    RESIDUAL       RESIDUAL       RESIDUAL       RESIDUAL       RESIDUAL    
   LAYER,ROW,COL  LAYER,ROW,COL  LAYER,ROW,COL  LAYER,ROW,COL  LAYER,ROW,COL
 ---------------------------------------------------------------------------
  1   515.7      0   280.0      0   200.1      0   87.97      0  -72.69    
   (  1,  7, 14)  (  1,  1, 29)  (  1,  1, 29)  (  1,  1, 29)  (  1,  2, 29)
  1  -50.61      0  -21.66      0   11.24      0  -4.842      0  -3.581    
   (  1,  2, 29)  (  1,  2, 29)  (  1,  2, 28)  (  1,  3, 28)  (  1,  3, 28)
  1  -2.455      0  -1.316      0 -0.6618      0 -0.4971      0 -0.3071    
   (  1,  3, 28)  (  1,  4,  2)  (  1,  1,  2)  (  1,  2, 29)  (  1,  2, 29)
  1 -0.2389      0 -0.1054      0 -0.5374E-01  0 -0.2748E-01  0 -0.2092E-01
   (  1,  2, 29)  (  1,  1,  2)  (  1,  1,  2)  (  1,  3,  2)  (  1,  3, 28)
  1 -0.1559E-01  0 -0.8560E-02  0 -0.4149E-02  0 -0.2846E-02  0 -0.1853E-02
   (  1,  3,  2)  (  1,  4,  2)  (  1,  1,  2)  (  1,  2, 29)  (  1,  2, 29)
  1 -0.1452E-02  0 -0.7120E-03  0 -0.3553E-03  0 -0.1852E-03  0 -0.1373E-03
   (  1,  2, 29)  (  1,  1,  2)  (  1,  1,  2)  (  1,  3,  2)  (  1,  3, 28)
  1 -0.1045E-03  0 -0.5835E-04  0 -0.2809E-04  0 -0.1862E-04  0 -0.1181E-04
   (  1,  3,  2)  (  1,  3,  2)  (  1,  1,  2)  (  1,  2, 29)  (  1,  2, 29)
  1 -0.9285E-05  0 -0.4871E-05  0 -0.2411E-05  0 -0.1267E-05  0 -0.9228E-06
   (  1,  2, 29)  (  1,  1,  2)  (  1,  1,  2)  (  1,  3,  2)  (  1,  3, 28)
  1 -0.7118E-06  0 -0.4004E-06  0 -0.1927E-06  1 -0.1532E-06
   (  1,  3,  2)  (  1,  3,  2)  (  1,  1,  2)  (  1,  1,  2)


1
              HEAD IN LAYER   1 AT END OF TIME STEP   1 IN STRESS PERIOD    1
  ---------------------------------------------------------------------------

            1           2           3           4           5           6           7           8           9          10
           11          12          13          14          15          16          17          18          19          20
           21          22          23          24          25          26          27          28          29          30
 ........................................................................................................................
   1    80.00       77.78       75.57       73.36       71.16       68.99       66.85       64.75       62.72       60.80    
        59.02       57.43       56.08       55.03       54.30       53.86       53.69       53.73       53.94       54.27    
        54.70       55.19       55.72       56.29       56.88       57.49       58.11       58.74       59.37       60.00    
   2    80.00       77.78       75.56       73.35       71.14       68.96       66.80       64.68       62.62       60.66    
        58.83       57.18       55.79       54.72       53.99       53.60       53.47       53.57       53.82       54.18    
        54.63       55.14       55.69       56.27       56.87       57.48       58.10       58.73       59.37       60.00    
   3    80.00       77.77       75.55       73.32       71.11       68.90       66.71       64.55       62.43       60.38    
        58.44       56.68       55.19       54.06       53.36       53.06       53.05       53.24       53.58       54.01    
        54.51       55.05       55.63       56.23       56.84       57.46       58.09       58.73       59.36       60.00    
   4    80.00       77.77       75.53       73.30       71.06       68.83       66.59       64.37       62.16       59.99    
        57.89       55.92       54.21       52.95       52.35       52.23       52.41       52.77       53.24       53.77    
        54.34       54.93       55.54       56.17       56.80       57.43       58.07       58.71       59.36       60.00    
   5    80.00       77.76       75.52       73.27       71.01       68.75       66.47       64.18       61.86       59.53    
        57.20       54.90       52.78       51.20       50.85       51.09       51.60       52.20       52.84       53.49    
        54.14       54.80       55.45       56.10       56.75       57.40       58.05       58.70       59.35       60.00    
   6    80.00       77.75       75.50       73.25       70.97       68.68       66.36       64.00       61.58       59.08    
        56.47       53.71       50.81       48.21       48.78       49.67       50.69       51.60       52.43       53.21    
        53.94       54.66       55.35       56.04       56.71       57.37       58.04       58.69       59.35       60.00    
   7    80.00       77.75       75.50       73.24       70.96       68.65       66.30       63.88       61.38       58.75    
        55.89       52.64       48.55       42.05       46.37       48.15       49.87       51.09       52.08       52.96    
        53.77       54.54       55.27       55.98       56.67       57.35       58.02       58.68       59.34       60.00    
   8    80.00       77.76       75.51       73.25       70.97       68.65       66.29       63.86       61.32       58.63    
        55.70       52.42       48.69       45.07       46.49       48.09       49.56       50.79       51.84       52.78    
        53.65       54.45       55.21       55.94       56.65       57.34       58.01       58.68       59.34       60.00    
   9    80.00       77.77       75.53       73.28       71.01       68.70       66.35       63.93       61.41       58.75    
        55.87       52.64       48.74       43.04       46.43       48.16       49.49       50.66       51.72       52.69    
        53.58       54.41       55.18       55.93       56.64       57.33       58.01       58.68       59.34       60.00    
  10    80.00       77.79       75.57       73.33       71.08       68.80       66.48       64.10       61.65       59.09    
        56.39       53.54       50.58       47.93       48.02       48.65       49.59       50.65       51.69       52.67    
        53.57       54.41       55.20       55.94       56.65       57.35       58.02       58.69       59.35       60.00    
  11    80.00       77.81       75.61       73.41       71.18       68.94       66.67       64.35       61.99       59.56    
        57.07       54.55       52.11       50.07       49.07       48.81       49.57       50.64       51.72       52.72    
        53.63       54.47       55.25       55.98       56.69       57.37       58.04       58.70       59.35       60.00    
  12    80.00       77.84       75.67       73.49       71.31       69.11       66.90       64.66       62.39       60.10    
        57.78       55.48       53.24       51.17       49.38       47.97       49.24       50.63       51.83       52.86    
        53.76       54.58       55.34       56.06       56.75       57.42       58.07       58.72       59.36       60.00    
  13    80.00       77.87       75.73       73.59       71.45       69.30       67.15       64.98       62.82       60.65    
        58.49       56.34       54.21       52.00       49.30       44.43       48.78       50.82       52.12       53.12    
        53.98       54.75       55.48       56.16       56.83       57.48       58.12       58.75       59.37       60.00    
  14    80.00       77.90       75.79       73.69       71.59       69.49       67.40       65.32       63.25       61.20    
        59.17       57.19       55.25       53.32       51.39       49.69       50.64       51.75       52.70       53.53    
        54.28       54.98       55.64       56.29       56.92       57.55       58.16       58.78       59.39       60.00    
  15    80.00       77.93       75.86       73.79       71.73       69.68       67.65       65.64       63.66       61.72    
        59.82       58.00       56.26       54.65       53.24       52.29       52.35       52.82       53.41       54.02    
        54.63       55.24       55.83       56.43       57.03       57.62       58.22       58.81       59.41       60.00    
  16    80.00       77.96       75.92       73.88       71.86       69.86       67.88       65.93       64.03       62.18    
        60.40       58.72       57.16       55.77       54.63       53.88       53.65       53.77       54.09       54.51    
        54.99       55.50       56.03       56.57       57.13       57.70       58.27       58.84       59.42       60.00    
  17    80.00       77.98       75.97       73.96       71.97       70.01       68.08       66.18       64.35       62.58    
        60.89       59.32       57.89       56.65       55.64       54.95       54.60       54.53       54.67       54.95    
        55.31       55.74       56.21       56.70       57.23       57.76       58.31       58.87       59.43       60.00    
  18    80.00       78.00       76.01       74.03       72.06       70.13       68.23       66.38       64.59       62.88    
        61.27       59.78       58.43       57.28       56.34       55.67       55.26       55.09       55.12       55.29    
        55.57       55.93       56.35       56.81       57.31       57.82       58.35       58.90       59.45       60.00    
  19    80.00       78.01       76.03       74.07       72.13       70.21       68.34       66.52       64.76       63.09    
        61.52       60.08       58.79       57.69       56.79       56.12       55.68       55.45       55.42       55.53    
        55.76       56.07       56.46       56.89       57.36       57.86       58.38       58.91       59.46       60.00    
  20    80.00       78.02       76.05       74.09       72.16       70.25       68.39       66.59       64.85       63.20    
        61.65       60.24       58.97       57.89       57.00       56.33       55.88       55.63       55.57       55.65    
        55.85       56.14       56.51       56.93       57.39       57.88       58.40       58.92       59.46       60.00    
1
  VOLUMETRIC BUDGET FOR ENTIRE MODEL AT END OF TIME STEP    1, STRESS PERIOD   1
  ------------------------------------------------------------------------------

     CUMULATIVE VOLUMES      L**3       RATES FOR THIS TIME STEP      L**3/T
     ------------------                 ------------------------

           IN:                                      IN:
           ---                                      ---
             STORAGE =           0.0000               STORAGE =           0.0000
       CONSTANT HEAD =     2770000.0031         CONSTANT HEAD =        2770.0000
       MANAGED WELLS =           0.0000         MANAGED WELLS =           0.0000

            TOTAL IN =     2770000.0031              TOTAL IN =        2770.0000

          OUT:                                     OUT:
          ----                                     ----
             STORAGE =           0.0000               STORAGE =           0.0000
       CONSTANT HEAD =           0.0000         CONSTANT HEAD =           0.0000
       MANAGED WELLS =     2770000.0000         MANAGED WELLS =        2770.0000

           TOTAL OUT =     2770000.0000             TOTAL OUT =        2770.0000

            IN - OUT =       3.0620E-03              IN - OUT =       3.0620E-06

 PERCENT DISCREPANCY =           0.00     PERCENT DISCREPANCY =           0.00






         TIME SUMMARY AT END OF TIME STEP    1 IN STRESS PERIOD    1
                    SECONDS     MINUTES      HOURS       DAYS        YEARS
                    -----------------------------------------------------------
   TIME STEP LENGTH 8.64000E+07 1.44000E+06  24000.      1000.0      2.7379    
 STRESS PERIOD TIME 8.64000E+07 1.44000E+06  24000.      1000.0      2.7379    
         TOTAL TIME 8.64000E+07 1.44000E+06  24000.      1000.0      2.7379    
1
